%Chk=e5_05_acetate_ion_scrf
# opt freq apfd/6-311+g(2d,p) scrf(smd,solvent=water) geom=connect Int=(Ultrafine,Acc2E=12)

acetate ion in water

-1 1
 C                 -0.00000000    0.14579355    0.00000000
 O                  0.00000000    0.79644355    1.12695886
 O                  0.00000000    0.79644355   -1.12695886
 C                  0.00000000   -1.39420645    0.00000000
 H                 -1.00880567   -1.75087312    0.00000000
 H                  0.50440284   -1.75087312   -0.87365134
 H                  0.50440284   -1.75087312    0.87365134

 1 2 1.5 3 1.5 4 1.0
 2
 3
 4 5 1.0 6 1.0 7 1.0
 5
 6
 7

