%Chk=e5_01_ml4g
# opt freq APFD/6-311+g(2d,p) geom=connectivity Int=(UltraFine,Acc2E=12)

methyl-(S)-lactate conformer 4

0 1
 C                  1.83731324   -0.62628255    0.93464424
 H                  1.46617145   -0.07148955    1.80247597
 H                  1.62343422   -1.69100770    1.07133103
 H                  2.92675724   -0.50531153    0.88078516
 C                  1.18373000   -0.09794000   -0.34979600
 H                  1.54790080   -0.68177600   -1.20751677
 C                 -0.31972400   -0.36238700   -0.29172300
 C                 -2.42313818    0.43215470    0.37854662
 H                 -2.82128731    1.34359320    0.82497847
 H                 -2.86513496    0.26033351   -0.60630826
 H                 -2.63024727   -0.43227056    1.01543860
 O                  1.41503702    1.28863721   -0.53900541
 H                  2.37494112    1.42118762   -0.57122220
 O                 -0.81628188   -1.40617746   -0.65935487
 O                 -1.00676816    0.64835662    0.26372766

 1 2 1.0 3 1.0 4 1.0 5 1.0
 2
 3
 4
 5 6 1.0 7 1.0 12 1.0
 6
 7 14 2.0 15 1.5
 8 9 1.0 10 1.0 11 1.0 15 1.0
 9
 10
 11
 12 13 1.0
 13
 14
 15

--Link1--
%oldchk=e5_01_ml4g
%Chk=e5_01_ml4s
# opt freq apfd/6-311+g(2d,p) geom=allcheck guess=read scrf(solvent=methanol) Int=(UltraFine,Acc2E=12)

