%Chk=e5_04_chloroform 
# opt freq apfd/6-311+g(2d,p) scrf=(smd,solvent=chloroform) geom=connectivity int=(ultrafine,acc2e=12)

acetic acid in chloroform

0 1
 C                  0.00000000    0.15672900    0.00000000
 C                  1.05699100   -0.90813500    0.00000000
 H                  2.04175200   -0.44784900    0.00000000
 H                  0.93929100   -1.54419000    0.87989800
 H                  0.93929100   -1.54419000   -0.87989800
 O                  0.18853800    1.34467200    0.00000000
 O                 -1.23850300   -0.38360200    0.00000000
 H                 -1.86256600    0.35610900    0.00000000

 1 2 1.0 6 2.0 7 1.0
 2 3 1.0 4 1.0 5 1.0
 3
 4
 5
 6
 7 8 1.0
 8


