%Chk=e5_06_hydroxide_3_2h2o_smd
# OPT(CalcFC,Tight) FREQ APFd/6-311+g(2d,p) SCRF(SMD,Solvent=water) geom=connectivity Int=(Ultrafine,Acc2E=12)

hydroxide ion with 2 water molecules

-1 1
 O                 -0.00520582    0.94953224   -0.08898417
 H                  0.00537614    1.55208926    0.65808732
 H                  1.29106218    0.16685321   -0.06651527
 H                 -1.19925013    0.07301489    0.05845131
 O                 -2.05550415   -0.52953520    0.10045989
 H                 -2.46040354   -0.37399396   -0.75475350
 O                  2.13594725   -0.43678331   -0.02638172
 H                  1.76131718   -1.28367333    0.22397809

 1 2 1.0 3 0.5 4 0.5
 2
 3 7 1.0
 4 5 1.0
 5 6 1.0
 6
 7 8 1.0
 8

