%Chk=e5_01_ml1g
# opt freq APFD/6-311+g(2d,p) geom=connectivity Int=(UltraFine,Acc2E=12)

methyl-(S)-lactate conformer 1

0 1
 C                  1.53292600    1.40733600   -0.38525000
 H                  1.49177600    1.21018500   -1.46172200
 H                  0.87873500    2.25187300   -0.14946900
 H                  2.56256800    1.67106200   -0.12705400
 C                  1.12795400    0.15470400    0.40098300
 H                  1.12555100    0.39602000    1.47648200
 C                 -0.28507000   -0.30634500    0.05096400
 C                 -2.57052900    0.25591800   -0.02054100
 H                 -3.17476800    1.13036300    0.22045200
 H                 -2.67169600   -0.00457400   -1.07698000
 H                 -2.86824000   -0.59998200    0.59030200
 O                  2.03128100   -0.89941600    0.15126800
 H                  1.49270000   -1.64188000   -0.18107800
 O                 -0.52765300   -1.42059600   -0.37246700
 O                 -1.21216600    0.63466900    0.27521500

 1 2 1.0 3 1.0 4 1.0 5 1.0
 2
 3
 4
 5 6 1.0 7 1.0 12 1.0
 6
 7 14 2.0 15 1.5
 8 9 1.0 10 1.0 11 1.0 15 1.0
 9
 10
 11
 12 13 1.0
 13
 14
 15

--Link1--
%oldchk=e5_01_ml1g
%Chk=e5_01_ml1s
# opt freq apfd/6-311+g(2d,p) geom=allcheck guess=read scrf(solvent=methanol) Int=(UltraFine,Acc2E=12)


