%Chk=e5_01_ml3g
# opt freq APFD/6-311+g(2d,p) geom=connectivity Int=(UltraFine,Acc2E=12)

methyl-(S)-lactate conformer 3

0 1
 C                  1.51340684   -1.34044725    0.49887775
 H                  1.55653077   -1.02065851    1.54504783
 H                  0.81030479   -2.17338018    0.40591048
 H                  2.50790284   -1.69944024    0.20676675
 C                  1.09663400   -0.16159000   -0.39327600
 H                  1.03409907   -0.50677574   -1.43757209
 C                 -0.29548600    0.33333000   -0.00408400
 C                 -2.57967196   -0.24757017   -0.04490366
 H                 -3.18608894   -1.07133130   -0.42268940
 H                 -2.68964088   -0.15439191    1.03894733
 H                 -2.87671107    0.69472670   -0.51285886
 O                  1.97392906    0.94161191   -0.26802765
 H                  2.85883206    0.63147791   -0.51424865
 O                 -0.55304302    1.35874412    0.57658777
 O                 -1.22395197   -0.57567716   -0.38968370

 1 2 1.0 3 1.0 4 1.0 5 1.0
 2
 3
 4
 5 6 1.0 7 1.0 12 1.0
 6
 7 14 2.0 15 1.0
 8 9 1.0 10 1.0 11 1.0 15 1.0
 9
 10
 11
 12 13 1.0
 13
 14
 15

--Link1--
%oldchk=e5_01_ml3g
%Chk=e5_01_ml3s
# opt freq apfd/6-311+g(2d,p) geom=allcheck guess=read scrf(solvent=methanol) Int=(UltraFine,Acc2E=12)

