%Chk=e5_06_methanol_1_waters
# OPT FREQ APFd/6-311+g(2d,p) geom=connectivity  Int=(Ultrafine,Acc2E=12)

methanol with 2 water molecules

0 1
 C                  0.04759221    0.66576415    0.00000000
 H                  1.08956902    0.98761174    0.00000000
 H                 -0.44337378    1.07051963    0.89155935
 H                 -0.44337378    1.07051963   -0.89155935
 O                  0.04759221   -0.75869598    0.00000000
 H                 -0.73624449   -1.07869598   -0.45254837
 H                  1.19068745   -1.22536265   -0.65996628
 H                  0.04759215   -1.22536265    1.31993266
 O                  0.04759211   -1.54536265    2.22502934
 H                 -0.11694786   -2.49114076    2.23053969
 O                  1.97452419   -1.54536265   -1.11251458
 H                  1.71499129   -2.02599692   -1.90196589

 1 2 1.0 3 1.0 4 1.0 5 1.0
 2
 3
 4
 5 6 1.0 7 0.5 8 0.5
 6
 7 11 1.0
 8 9 1.0
 9 10 1.0
 10
 11 12 1.0
 12

