%Chk=e5_06_acetate_1_waters
# OPT FREQ APFd/6-311+g(2d,p) geom=connectivity  Int=(Ultrafine,Acc2E=12)

acetate ion with 4 water molecules

-1 1
 C                  0.01102217    0.17656983    0.00000000
 O                  0.00053660    0.76106361    1.11962134
 O                  0.00053660    0.76106361   -1.11962134
 C                  0.00053660   -1.34426063   -0.00000000
 H                  0.48185453   -1.74489124    0.89379961
 H                 -1.04164719   -1.68109047   -0.00000000
 H                  0.48185453   -1.74489124   -0.89379961
 H                  1.31654960    0.98209111    1.54300841
 H                 -1.14922948    1.13071950    1.82771207
 H                  1.13955437    0.39611703   -1.84725620
 H                 -1.14655720    0.38783685   -1.83016874
 O                 -1.93764051    1.38419783    2.31326000
 H                 -1.68467728    1.83337528    3.12310519
 O                  2.21895852    1.13365283    1.83333098
 H                  2.21175312    1.61183647    2.66573022
 O                 -1.93313580    0.13190993   -2.31740125
 H                 -1.92583726    0.55134515   -3.18089463
 O                  1.92059514    0.14586794   -2.34620582
 H                  2.04933115    0.76257669   -3.07056579

 1 2 2.0 3 2.0 4 1.0
 2 8 0.5 9 0.5
 3 10 0.5 11 0.5
 4 5 1.0 6 1.0 7 1.0
 5
 6
 7
 8 14 1.0
 9 12 1.0
 10 18 1.0
 11 16 1.0
 12 13 1.0
 13
 14 15 1.0
 15
 16 17 1.0
 17
 18 19 1.0
 19

