%chk=e5_06_acetate_2_4h2o_smd
# opt=(calcfc,tight) freq apfd/6-311+g(2d,p) scrf=(smd,solvent=water) geom=connectivity Int=(Ultrafine,Acc2E=12)

acetate ion with 4 water molecules + SMD

-1 1
 C                  0.01707000    0.07444600   -0.38858300
 O                 -1.11825800    0.05078800   -0.93167300
 O                  1.11327000   -0.02047500   -0.99492900
 C                  0.05022200    0.25446700    1.13032900
 H                 -0.05141300    1.32093800    1.35879300
 H                 -0.79536800   -0.25745600    1.59310600
 H                  0.98674200   -0.11519400    1.55137800
 H                 -2.32251400    0.90040200   -0.18390400
 H                 -2.38383100   -1.36924800   -0.27499400
 H                  2.38715000    0.92386700   -0.36999900
 H                  2.38028500   -1.33603500   -0.25332600
 O                 -3.17062700   -1.62224300    0.23439700
 H                 -3.51000300   -0.75141600    0.48110400
 O                 -3.12197600    1.32923600    0.23132700
 H                 -3.59974700    1.69324000   -0.51657700
 O                  3.17220400   -1.60910400    0.24060800
 H                  3.60194900   -0.75564800    0.37771000
 O                  3.14488000    1.37575700    0.08396300
 H                  2.74705000    1.74140200    0.87669300

 1 2 2.0 3 2.0 4 1.0
 2 8 0.5 9 0.5
 3 11 0.5 10 0.5
 4 5 1.0 6 1.0 7 1.0
 5
 6
 7
 8 14 1.0
 9 12 1.0
 10 18 1.0
 11 16 1.0
 12 13 1.0
 13
 14 15 1.0
 15
 16 17 1.0
 17
 18 19 1.0
 19

