%Chk=e5_06_methacet_2_3h2o
# OPT=CalcFC FREQ APFd/6-311+g(2d,p) geom=connectivity Int=(Ultrafine,Acc2E=12)

methyl acetate with three water molecules

0 1
 C                  0.26155300   -0.19280100    0.41424200
 O                  1.44406200   -0.16678200    0.13723300
 O                 -0.44699400    0.93549400    0.60037000
 C                 -0.57167800   -1.41773000    0.56678900
 H                 -1.22825500   -1.33137100    1.43385100
 H                 -1.21427600   -1.51293100   -0.31701000
 H                  0.06974900   -2.29300600    0.65112700
 C                  0.26317100    2.17473700    0.43310300
 H                 -0.44762800    2.95456200    0.69717100
 H                  1.12662000    2.20767000    1.09616800
 H                  0.59508600    2.29025300   -0.59761400
 H                  2.28813900   -1.86921800    0.13698800
 H                  2.62414900    1.11793500   -0.63363700
 H                 -2.33958800    0.85318300    0.73920100
 O                  3.06803300    1.89455300   -1.00425600
 H                  3.76165300    1.54824900   -1.56939700
 O                  2.47764800   -2.81785500    0.19434200
 H                  3.29152200   -2.88740300    0.69732900
 O                 -3.26966800    0.59742700    0.64520100
 H                 -3.79381600    1.37070000    0.86436300

 1 2 2.0 3 1.0 4 1.0
 2
 3 8 1.0
 4 5 1.0 6 1.0 7 1.0
 5
 6
 7
 8 9 1.0 10 1.0 11 1.0
 9
 10
 11
 12 17 1.0
 13 15 1.0
 14 19 1.0
 15 16 1.0
 16
 17 18 1.0
 18
 19 20 1.0
 20

