%Chk=e5_05_methylacetate_scrf
# opt freq apfd/6-311+g(2d,p) scrf(smd,solvent=water) geom=connect Int=(Ultrafine,Acc2E=12)

methyl acetate in water

0 1
 C                  0.17574807   -0.45324292    0.00000000
 O                  1.34770724   -0.07897897    0.00000000
 O                 -0.78951013    0.50053200    0.00000000
 C                 -0.20675439    1.80640173    0.00000000
 H                 -0.98264221    2.54321792    0.00000000
 H                  0.39921457    1.92655718    0.87364866
 H                  0.39921457    1.92655718   -0.87364866
 C                 -0.41016672   -1.87742825    0.00000000
 H                 -1.01069853   -2.01602703    0.87467391
 H                 -1.01069853   -2.01602703   -0.87467391
 H                  0.38707148   -2.59108582    0.00000000

 1 2 2.0 3 1.0 8 1.0
 2
 3 4 1.0
 4 5 1.0 6 1.0 7 1.0
 5
 6
 7
 8 9 1.0 10 1.0 11 1.0
 9
 10
 11

