%Chk=e5_01_ml2bg
# opt freq APFD/6-311+g(2d,p) geom=connectivity Int=(UltraFine,Acc2E=12)

methyl-(S)-lactate conformer 2b

0 1
 C                  1.89064108   -0.58962763    0.91794724
 H                  1.49020634   -0.08504118    1.80512122
 H                  1.74510512   -1.66881071    1.03524553
 H                  2.96200711   -0.37841446    0.85402819
 C                  1.19830200   -0.07470600   -0.35378100
 H                  1.59561174   -0.60549246   -1.22376399
 C                 -0.29318701   -0.40436222   -0.29149733
 C                 -2.40810089    0.41125200    0.38137463
 H                 -2.80470653    1.33114131    0.81142437
 H                 -2.86149379    0.21395905   -0.59310969
 H                 -2.59846346   -0.43819344    1.04230618
 O                  1.44383001    1.30292916   -0.57812404
 H                  0.84966574    1.79542074    0.01126705
 O                 -0.78877546   -1.45813960   -0.61861293
 O                 -0.99304077    0.62772213    0.23838098

 1 2 1.0 3 1.0 4 1.0 5 1.0
 2
 3
 4
 5 6 1.0 7 1.0 12 1.0
 6
 7 14 2.0 15 1.0
 8 9 1.0 10 1.0 11 1.0 15 1.0
 9
 10
 11
 12 13 1.0
 13
 14
 15

--Link1--
%oldchk=e5_01_ml2bg
%Chk=e5_01_ml2bs
# opt freq apfd/6-311+g(2d,p) geom=allcheck guess=read scrf(solvent=methanol) Int=(UltraFine,Acc2E=12)

