%Chk=e5_02
# opt freq APFD/6-311+g(2d,p) scrf=(solvent=acetonitrile) Int=(UltraFine,Acc2E=12)
geom=connectivity

Formaldehyde in Acetonitrile Opt Freq

0 1
 C                 -1.15681237    0.32133676    0.00000000
 H                 -0.62364862   -0.60636816    0.00000000
 H                 -2.22681237    0.32133676    0.00000000
 O                 -0.52977194    1.41238710    0.00000000

 1 2 1.0 3 1.0 4 2.0
 2
 3
 4

