%Chk=e5_01_ml2ag
# opt freq APFD/6-311+g(2d,p) geom=connectivity Int=(UltraFine,Acc2E=12)

methyl-(S)-lactate conformer 2a

0 1
 C                  2.21700753   -0.69892495    0.19277641
 H                  2.13287931   -0.75630886    1.28226234
 H                  2.13153018   -1.70703355   -0.21930248
 H                  3.19716774   -0.28491614   -0.05989706
 C                  1.12611300    0.20098600   -0.37050800
 H                  1.22485621    0.24154391   -1.47149995
 C                 -0.26886329   -0.37834764   -0.10806774
 C                 -2.55474447    0.18123974    0.12229653
 H                 -3.15485740    1.09128577    0.11019305
 H                 -2.86275775   -0.49615504   -0.67822309
 H                 -2.65264141   -0.33254429    1.08183395
 O                  1.28099645    1.49473345    0.18973015
 H                  0.48142420    1.99969861   -0.02866459
 O                 -0.53667248   -1.55224251    0.00927718
 O                 -1.19615925    0.60934945   -0.07847361

 1 2 1.0 3 1.0 4 1.0 5 1.0
 2
 3
 4
 5 6 1.0 7 1.0 12 1.0
 6
 7 14 2.0 15 1.0
 8 9 1.0 10 1.0 11 1.0 15 1.0
 9
 10
 11
 12 13 1.0
 13
 14
 15

--Link1--
%oldchk=e5_01_ml2ag
%Chk=e5_01_ml2as
# opt freq apfd/6-311+g(2d,p) geom=allcheck guess=read scrf(solvent=methanol) Int=(UltraFine,Acc2E=12)

