%Chk=e5_06_methacet_1_waters
# OPT FREQ APFd/6-311+g(2d,p) geom=connectivity Int=(Ultrafine,Acc2E=12)

methyl acetate with four water molecules

0 1
 C                 -0.00000000    0.49288152    0.00000000
 O                 -1.19016374    0.74316360    0.00000000
 O                  0.48185338   -0.75538050    0.00000000
 C                  1.10058363    1.50321849    0.00000000
 H                  1.72963061    1.35953386    0.88174069
 H                  1.72963061    1.35953386   -0.88174069
 H                  0.68667945    2.50935482    0.00000000
 C                 -0.49002828   -1.81101515    0.00000000
 H                  0.08363343   -2.73482738    0.00000000
 H                 -1.11321164   -1.75318453    0.89305195
 H                 -1.11321164   -1.75318453   -0.89305195
 H                  1.24263602   -0.90000535   -1.16631618
 H                 -1.62567254    2.07370187    0.00000000
 H                 -2.12468928   -0.29926722    0.00000000
 H                  1.24263602   -0.90000535    1.16631618
 O                 -2.76550680   -1.01407693    0.00000000
 H                 -3.65322537   -0.64862413    0.00000000
 O                 -1.92430714    2.98607096    0.00000000
 H                 -2.88402877    3.00912119   -0.00175472
 O                  1.76431554   -0.99917668   -1.96607585
 H                  2.43497886   -1.67240439   -1.82978515
 O                  1.76431554   -0.99917668    1.96607585
 H                  2.23476090   -1.83560300    1.94014954

 1 2 2.0 3 1.0 4 1.0
 2 13 0.5 14 0.5
 3 8 1.0 12 0.5 15 0.5
 4 5 1.0 6 1.0 7 1.0
 5
 6
 7
 8 9 1.0 10 1.0 11 1.0
 9
 10
 11
 12 20 1.0
 13 18 1.0
 14 16 1.0
 15 22 1.0
 16 17 1.0
 17
 18 19 1.0
 19
 20 21 1.0
 21
 22 23 1.0
 23

