%Chk=e5_05_methanol_scrf
# opt freq apfd/6-311+g(2d,p) scrf(smd,solvent=water) geom=connect Int=(Ultrafine,Acc2E=12)

methanol in water

0 1
 C                  0.01910216    0.67493798    0.00000000
 H                 -0.94776133    1.13327737    0.00000000
 H                  0.55745325    0.97794200    0.87365134
 H                  0.55745325    0.97794200   -0.87365134
 O                 -0.12769160   -0.74750765    0.00000000
 H                  0.73977470   -1.15872804    0.00000000

 1 2 1.0 3 1.0 4 1.0 5 1.0
 2
 3
 4
 5 6 1.0
 6

