%Chk=e5_06_methanol_2_1h2o
# opt=calcfc freq APFd/6-311+g(2d,p) geom=connectivity Int=(Ultrafine,Acc2E=12)

methanol with 1 water molecule

0 1
 C                 -1.59758800    0.69648200   -0.34194800
 H                 -0.64075800    1.20695600   -0.44291900
 H                 -2.31167600    1.36239000    0.15199400
 H                 -1.97179700    0.43063300   -1.33574700
 O                 -1.35427300   -0.47110600    0.45175500
 H                 -2.17892300   -0.95200100    0.55642600
 H                  0.21582400   -1.24762900    0.01884100
 O                  1.13002500   -1.40631600   -0.28063900
 H                  1.48599900   -2.08818200    0.29301600

 1 2 1.0 3 1.0 4 1.0 5 1.0
 2
 3
 4
 5 6 1.0
 6
 7 8 1.0
 8 9 1.0
 9

