%Chk=x5_03_ml2b
# opt freq apfd/6-311+g(2d,p) scrf=(solvent=water) geom=connectivity
int=(ultrafine,acc2e=12)

methyl-(S)-lactate conformer 2b

0 1
 C                 -1.86880600    0.63773000    0.87396200
 H                 -1.48689900    0.16844900    1.78507500
 H                 -1.69091800    1.71307100    0.93745000
 H                 -2.94417500    0.46160300    0.81422300
 C                 -1.18699300    0.04960600   -0.35870600
 H                 -1.57034800    0.53441600   -1.25926300
 C                  0.29843100    0.38263500   -0.29091300
 C                  2.40935200   -0.39930100    0.37344000
 H                  2.81190500   -1.32220900    0.78211500
 H                  2.87327500   -0.17150900   -0.58608500
 H                  2.56990900    0.42832800    1.06433800
 O                 -1.44492500   -1.32842500   -0.52219900
 H                 -1.05554400   -1.80064900    0.22243000
 O                  0.76196900    1.45652400   -0.59598500
 O                  1.00556600   -0.63254000    0.19981100

 1 2 1.0 3 1.0 4 1.0 5 1.0
 2
 3
 4
 5 6 1.0 7 1.0 12 1.0
 6
 7 14 2.0 15 1.5
 8 9 1.0 10 1.0 11 1.0 15 1.0
 9
 10
 11
 12 13 1.0
 13
 14
 15

