%Chk=x5_06_r_gas
# opt APFd/6-311+g(2d,p) geom=connectivity INT(Ultrafine,Acc2E=12)

ion complex: methyl acetate with three water molecules and hydroxide with two water molecules

-1 1
 C                  0.13503900   -0.34624100   -0.25744600
 O                 -1.04646900   -0.06437100   -0.19822300
 O                  1.08292900    0.57940000   -0.43801200
 C                  0.70811100   -1.72201900   -0.15048700
 H                  1.29250000   -1.94222500   -1.04673900
 H                  1.40236600   -1.76359700    0.69230800
 H                 -0.09050000   -2.45067700   -0.02869100
 C                  0.64395900    1.94215000   -0.57546600
 H                  1.53816400    2.50803200   -0.82533500
 H                 -0.09287900    2.02060200   -1.37411400
 H                  0.20467400    2.29991100    0.35495400
 H                 -2.20280000   -1.54597800    0.00633000
 H                 -1.99688400    1.51628900    0.30899100
 H                  2.90653000    0.09236500    0.23389100
 O                 -2.47779846    2.31611040    0.56564367
 H                 -3.23873702    2.00842095    1.06246351
 O                 -2.79577860   -2.30576153    0.11122691
 H                 -3.50126011   -2.17290018   -0.52509499
 O                  3.78459941   -0.14214383    0.55741433
 H                  4.17190769    0.67638499    0.87499182
 O                 -0.54487135   -0.93462139   -3.97546775
 H                 -0.71547922   -1.08226192   -4.90841984
 H                 -1.84108835   -1.71740439   -3.99784675
 H                  0.64908965   -1.81124939   -4.12287475
 O                  1.48957915   -2.42835215   -4.22664199
 H                  1.93868255   -2.30946051   -3.38777562
 O                 -2.73051283   -2.25452616   -4.01320254
 H                 -2.42755591   -3.13025403   -4.26133384

 1 2 2.0 3 1.5 4 1.0 21 0.5
 2 13 0.5 12 0.5
 3 8 1.0 14 0.5
 4 5 1.0 6 1.0 7 1.0
 5
 6
 7
 8 9 1.0 10 1.0 11 1.0
 9
 10
 11
 12 17 1.0
 13 15 1.0
 14 19 1.0
 15 16 1.0
 16
 17 18 1.0
 18
 19 20 1.0
 20
 21 22 1.0 24 0.5 23 0.5
 22
 23 27 1.0
 24 25 1.0
 25 26 1.0
 26
 27 28 1.0
 28

--Link1--
%Chk=x5_06_r_gas
# APFD/6-311+G(2d,p) Opt=(CalcFC,Tight) Freq Geom=AllCheck Guess=Read INT(Ultrafine,Acc2E=12)

