%Chk=x5_06_p_gas
# opt APFd/6-311+g(2d,p) geom=connectivity INT(Ultrafine,Acc2E=12)

acetate ion + methanol with 5 water molecules

-1 1
 C                 -0.76475541    0.86802553    0.34064107
 O                 -1.96240090    1.00794793    0.68727654
 O                 -0.18903051   -0.23511538    0.15073683
 C                  0.08002326    2.12455946    0.14522568
 H                 -0.50269905    3.03370917    0.29806036
 H                  0.91468700    2.10166634    0.85142488
 H                  0.51557424    2.12375218   -0.85749267
 H                 -2.81100729    2.43203396    0.66695088
 H                 -3.72503950    0.20469352    0.77429708
 H                  1.22031814   -0.22917851   -0.63607200
 H                  1.29438273   -0.60996191    1.69996133
 O                 -4.68554883    0.34786612    0.83381300
 H                 -4.72354470    1.30800452    0.92081811
 O                 -3.46493535    3.17757790    0.57999627
 H                 -3.59489291    3.25170952   -0.36770727
 O                  2.25176466   -0.60648829    1.83635095
 H                  2.56251821   -0.48520775    0.92562076
 O                  2.14141938   -0.28956047   -1.03206536
 H                  2.14910135   -1.14156502   -1.47284097
 C                 -1.49713299    1.22805456    3.85431639
 H                 -2.30529477    0.50678977    3.96793639
 H                 -1.90529921    2.14874503    3.42481120
 H                 -1.07917138    1.43776897    4.84432482
 O                 -0.53714513    0.63098740    2.99034039
 H                  0.19848870    1.23850625    2.87640278
 H                  0.02010313   -0.91486274    3.86095656
 O                  0.27573560   -1.61850498    4.47920616
 H                  0.22711806   -2.43104149    3.97174100

 1 2 2.0 3 2.0 4 1.0 24 0.5
 2 8 0.5 9 0.5
 3 10 0.5 11 0.5
 4 5 1.0 6 1.0 7 1.0
 5
 6
 7
 8 14 1.0
 9 12 1.0
 10 18 1.0
 11 16 1.0
 12 13 1.0
 13
 14 15 1.0
 15
 16 17 1.0
 17
 18 19 1.0
 19
 20 21 1.0 22 1.0 23 1.0 24 1.0
 21
 22
 23
 24 25 1.0 26 0.5
 25
 26 27 1.0
 27 28 1.0
 28

--Link1--
%Chk=x5_06_p_gas
# APFD/6-311+G(2d,p) Opt=(CalcFC,Tight) Freq Geom=AllCheck Guess=Read INT(Ultrafine,Acc2E=12)

