%Chk=x5_05_benz
# opt freq apfd/6-311+g(2d,p) geom=connectivity int=(ultrafine,acc2e=12)

Benzene in water

0 1
 C                 -1.80080484    0.61362950   -0.00803285
 C                 -0.40564484    0.61362950   -0.00803285
 C                  0.29189316    1.82138050   -0.00803285
 C                 -0.40576084    3.02988950   -0.00923185
 C                 -1.80058584    3.02981150   -0.00971085
 C                 -2.49818684    1.82160550   -0.00871485
 H                 -2.35056384   -0.33868750   -0.00758285
 H                  0.14386316   -0.33888350   -0.00671785
 H                  1.39157316    1.82146050   -0.00739885
 H                  0.14443916    3.98203250   -0.00929085
 H                 -2.35070784    3.98209250   -0.01066385
 H                 -3.59779084    1.82178850   -0.00889485

 1 2 1.5 6 1.5 7 1.0
 2 3 1.5 8 1.0
 3 4 1.5 9 1.0
 4 5 1.5 10 1.0
 5 6 1.5 11 1.0
 6 12 1.0
 7
 8
 9
 10
 11
 12

--link1--
%Chk=x5_05_benz
# scrf=(smd,solvent=water) int=(ultrafine,acc2e=12) apfd/6-311+g(2d,p) geom=allcheck guess=read opt freq


