%Chk=x5_05_nbenz
# opt freq apfd/6-311+g(2d,p) geom=connectivity scrf=(smd,solvent=nitrobenzene) 
  int=(ultrafine,acc2e=12)

acetic acid optimized in nitrobenzene: SCRF

0 1
 C                  0.08666600    0.12253300   -0.00003300
 O                  0.62313200    1.20645800    0.00000400
 O                  0.79459400   -1.02845700   -0.00000600
 H                  1.73989900   -0.79739700    0.00008000
 C                 -1.39036200   -0.12652200   -0.00001100
 H                 -1.66664800   -0.71006200    0.88111200
 H                 -1.92635900    0.81926400   -0.00096000
 H                 -1.66652900   -0.71188000   -0.87994700

 1 2 2.0 3 1.0 5 1.0
 2
 3 4 1.0
 4
 5 6 1.0 7 1.0 8 1.0
 6
 7
 8


