%Chk=x5_02_syn
# opt freq APFD/6-311+g(2d,p) geom=connectivity Int=(UltraFine,Acc2E=12)

Syn furfuraldehyde gas phase

0 1
 C                 -0.44956229    0.37623746    0.00428096
 C                  0.89479674    0.44034693    0.00421026
 C                  1.25303111    1.90329666   -0.05052778
 C                  0.09015441    2.58032257   -0.07816109
 O                 -1.04585531    1.68312282   -0.23084871
 H                 -1.00959976   -0.52210721    0.15995653
 H                  1.57529135   -0.38426473    0.04713671
 H                  2.23787650    2.32158678   -0.05412308
 C                 -0.02433079    4.11150026    0.04010986
 O                 -1.15520289    4.66242509    0.00574877
 H                  0.85768911    4.70692677    0.15150188

 1 2 2.0 5 1.0 6 1.0
 2 3 1.0 7 1.0
 3 4 2.0 8 1.0
 4 5 1.0 9 1.0
 5
 6
 7
 8
 9 10 2.0 11 1.0
 10
 11

--link1--
%Chk=x5_02_syn
# opt freq APFD/6-311+g(2d,p) geom=connectivity scrf=(solvent=acetone) Int=(UltraFine,Acc2E=12)

Syn furfuraldehyde in acetone

0 1
 C                 -0.44956229    0.37623746    0.00428096
 C                  0.89479674    0.44034693    0.00421026
 C                  1.25303111    1.90329666   -0.05052778
 C                  0.09015441    2.58032257   -0.07816109
 O                 -1.04585531    1.68312282   -0.23084871
 H                 -1.00959976   -0.52210721    0.15995653
 H                  1.57529135   -0.38426473    0.04713671
 H                  2.23787650    2.32158678   -0.05412308
 C                 -0.02433079    4.11150026    0.04010986
 O                 -1.15520289    4.66242509    0.00574877
 H                  0.85768911    4.70692677    0.15150188

 1 2 2.0 5 1.0 6 1.0
 2 3 1.0 7 1.0
 3 4 2.0 8 1.0
 4 5 1.0 9 1.0
 5
 6
 7
 8
 9 10 2.0 11 1.0
 10
 11

--link1--
%Chk=x5_02_syn
# opt freq APFD/6-311+g(2d,p) geom=connectivity scrf(solvent=dibutylether) Int=(UltraFine,Acc2E=12)

Syn furfuraldehyde in dibutylether

0 1
 C                 -0.44956229    0.37623746    0.00428096
 C                  0.89479674    0.44034693    0.00421026
 C                  1.25303111    1.90329666   -0.05052778
 C                  0.09015441    2.58032257   -0.07816109
 O                 -1.04585531    1.68312282   -0.23084871
 H                 -1.00959976   -0.52210721    0.15995653
 H                  1.57529135   -0.38426473    0.04713671
 H                  2.23787650    2.32158678   -0.05412308
 C                 -0.02433079    4.11150026    0.04010986
 O                 -1.15520289    4.66242509    0.00574877
 H                  0.85768911    4.70692677    0.15150188

 1 2 2.0 5 1.0 6 1.0
 2 3 1.0 7 1.0
 3 4 2.0 8 1.0
 4 5 1.0 9 1.0
 5
 6
 7
 8
 9 10 2.0 11 1.0
 10
 11

--link1--
%Chk=x5_02_syn
# opt freq APFD/6-311+g(2d,p) geom=connectivity scrf(solvent=diethylether) Int=(UltraFine,Acc2E=12)

Syn furfuraldehyde in diethylether

0 1
 C                 -0.44956229    0.37623746    0.00428096
 C                  0.89479674    0.44034693    0.00421026
 C                  1.25303111    1.90329666   -0.05052778
 C                  0.09015441    2.58032257   -0.07816109
 O                 -1.04585531    1.68312282   -0.23084871
 H                 -1.00959976   -0.52210721    0.15995653
 H                  1.57529135   -0.38426473    0.04713671
 H                  2.23787650    2.32158678   -0.05412308
 C                 -0.02433079    4.11150026    0.04010986
 O                 -1.15520289    4.66242509    0.00574877
 H                  0.85768911    4.70692677    0.15150188

 1 2 2.0 5 1.0 6 1.0
 2 3 1.0 7 1.0
 3 4 2.0 8 1.0
 4 5 1.0 9 1.0
 5
 6
 7
 8
 9 10 2.0 11 1.0
 10
 11

--Link1--
%Chk=x5_02_syn
# opt freq APFD/6-311+g(2d,p) geom=connectivity scrf(solvent=methylcyclohexane) Int=(UltraFine,Acc2E=12)

Syn furfuraldehyde in methylcyclohexane

0 1
 C                 -0.44956229    0.37623746    0.00428096
 C                  0.89479674    0.44034693    0.00421026
 C                  1.25303111    1.90329666   -0.05052778
 C                  0.09015441    2.58032257   -0.07816109
 O                 -1.04585531    1.68312282   -0.23084871
 H                 -1.00959976   -0.52210721    0.15995653
 H                  1.57529135   -0.38426473    0.04713671
 H                  2.23787650    2.32158678   -0.05412308
 C                 -0.02433079    4.11150026    0.04010986
 O                 -1.15520289    4.66242509    0.00574877
 H                  0.85768911    4.70692677    0.15150188

 1 2 2.0 5 1.0 6 1.0
 2 3 1.0 7 1.0
 3 4 2.0 8 1.0
 4 5 1.0 9 1.0
 5
 6
 7
 8
 9 10 2.0 11 1.0
 10
 11

--link1--
%Chk=x5_02_syn
# opt freq APFD/6-311+g(2d,p) geom=connectivity scrf(solvent=tetrahydrofuran) Int=(UltraFine,Acc2E=12)

Syn furfuraldehyde in tetrahydrofuran

0 1
 C                 -0.44956229    0.37623746    0.00428096
 C                  0.89479674    0.44034693    0.00421026
 C                  1.25303111    1.90329666   -0.05052778
 C                  0.09015441    2.58032257   -0.07816109
 O                 -1.04585531    1.68312282   -0.23084871
 H                 -1.00959976   -0.52210721    0.15995653
 H                  1.57529135   -0.38426473    0.04713671
 H                  2.23787650    2.32158678   -0.05412308
 C                 -0.02433079    4.11150026    0.04010986
 O                 -1.15520289    4.66242509    0.00574877
 H                  0.85768911    4.70692677    0.15150188

 1 2 2.0 5 1.0 6 1.0
 2 3 1.0 7 1.0
 3 4 2.0 8 1.0
 4 5 1.0 9 1.0
 5
 6
 7
 8
 9 10 2.0 11 1.0
 10
 11

