%Chk=x5_06_r_smd
# opt=(calcfc,tight) freq apfd/6-311+g(2d,p) scrf=(smd,solvent=water)
geom=connectivity int=(ultrafine,acc2e=12)

ion complex: methyl acetate with three water molecules and hydroxide with
two water molecules

-1 1
 C                  0.83928046    0.39565328    0.47019869
 O                  0.94081343    0.83689858   -0.65536226
 O                  1.20031227   -0.85260556    0.80225474
 C                  0.36309224    1.15380709    1.66854552
 H                 -0.47184447    0.60339371    2.10918243
 H                  1.16825336    1.20252744    2.40726581
 H                  0.04473806    2.15072097    1.37194135
 C                  1.42297637   -1.77171324   -0.28230982
 H                  1.90746787   -2.63565085    0.17095309
 H                  0.45501525   -2.03460348   -0.71054057
 H                  2.06375243   -1.32896233   -1.04439515
 H                 -0.52148925    2.48417050   -0.89299636
 H                  0.04619702   -0.11176811   -2.57272324
 H                  3.55862982   -0.03522664    0.57126577
 O                 -0.49506205   -0.85155105   -2.86088248
 H                 -1.01550819   -1.06491276   -2.03727668
 O                 -1.27768377    2.96155885   -0.53557748
 H                 -1.89151523    2.23494224   -0.28717628
 O                  3.93991767    0.61457155   -0.02598595
 H                  3.17827497    0.91556453   -0.53665922
 O                 -1.74758239   -1.42162761   -0.56724810
 H                 -2.44526129   -2.02475947   -0.83595088
 H                 -2.42110664   -0.06889120   -0.19793864
 H                 -1.63308118   -1.59331536    1.00446616
 O                 -1.55099138   -1.59970006    2.01685536
 H                 -0.61468170   -1.75850634    2.15555191
 O                 -2.80551702    0.78841084    0.20592591
 H                 -2.79358945    0.59115014    1.14658627

 1 2 2.0 3 1.5 4 1.0 21 0.5
 2 12 0.5 13 0.5
 3 8 1.0 14 0.5
 4 5 1.0 6 1.0 7 1.0
 5
 6
 7
 8 9 1.0 10 1.0 11 1.0
 9
 10
 11
 12 17 1.0
 13 15 1.0
 14 19 1.0
 15 16 1.0
 16
 17 18 1.0
 18
 19 20 1.0
 20
 21 22 1.0 23 0.5 24 0.5
 22
 23 27 1.0
 24 25 1.0
 25 26 1.0
 26
 27 28 1.0
 28

