%Chk=x5_04_ts
# opt=(calcfc,ts) freq apfd/6-311+g(2d,p) geom=connectivity
  int=(ultrafine,acc2e=12) scrf=(smd,solvent=water)

Menshutkin TS Opt Freq in water

0 1
 H                  0.00000000    1.07009457   -0.60639862
 H                 -0.92672908   -0.53504728   -0.60639862
 H                  0.92672908   -0.53504728   -0.60639862
 C                  0.00000000   -0.00000000   -0.60638866
 N                 -0.00000000    0.00000000   -2.81139084
 Cl                -0.00000000    0.00000000    2.03361218
 H                  0.81643985    0.47137176   -3.14478367
 H                  0.00000000   -0.94274353   -3.14478367
 H                 -0.81643985    0.47137176   -3.14478367

 1 4 1.0
 2 4 1.0
 3 4 1.0
 4 5 0.5 6 0.5
 5 7 1.0 8 1.0 9 1.0
 6
 7
 8
 9

