%Chk=x5_05_urea
# opt freq apfd/6-311+g(2d,p) geom=connectivity int=(ultrafine,acc2e=12)

Urea

0 1
 C                 -1.44344427    0.46291599    0.04398562
 O                 -1.25432675   -0.67162735   -0.46652054
 N                 -1.62079693    1.63794813   -0.82131520
 N                 -1.48700923    0.61320069    1.50563421
 H                 -0.56610395    0.79686929    1.84943547
 H                 -2.08999854    1.37430391    1.74464420
 H                 -2.21122010    2.30280095   -0.36374420
 H                 -2.04158977    1.35639927   -1.68367453

 1 2 2.0 3 1.0 4 1.0
 2
 3 7 1.0 8 1.0
 4 5 1.0 6 1.0
 5
 6
 7
 8

--link1--
%Chk=x5_05_urea
# scrf=(smd,solvent=water) int=(ultrafine,acc2e=12) apfd/6-311+g(2d,p) geom=allcheck guess=read opt freq

