%Chk=x5_04_nh3ch3+
# opt freq apfd/6-311+g(2d,p) geom=connectivity int=(ultrafine,acc2e=12)

NH3CH3+ gas phase

1 1
 C                  0.00000000    0.00000000    0.79482774
 H                  0.82357984   -0.47549404   -1.07920538
 H                 -0.82357984   -0.47549404   -1.07920538
 H                 -0.00000000    0.95098808   -1.07920538
 H                 -0.89271868    0.51541137    1.13451086
 H                  0.00000000   -1.03082274    1.13451086
 H                  0.89271868    0.51541137    1.13451086
 N                 -0.00000000   -0.00000000   -0.70498326

 1 5 1.0 6 1.0 7 1.0 8 1.0
 2 8 1.0
 3 8 1.0
 4 8 1.0
 5
 6
 7
 8

--Link1--
%Chk=x5_04_nh3ch3+
# opt freq apfd/6-311+G(2d,p) scrf=(smd,solvent=water) geom=check guess=read int=(ultrafine,acc2e=12) 

NH3CH3+ in water

1 1



