%Chk=x5_03_ml3
# opt freq apfd/6-311+g(2d,p) scrf=(solvent=water) geom=connectivity
int=(ultrafine,acc2e=12)

methyl-(S)-lactate conformer 3

0 1
 C                 -1.47866700    1.34395000    0.49692300
 H                 -1.50523400    1.03622400    1.54485200
 H                 -0.76609400    2.16261300    0.38433400
 H                 -2.46842000    1.71218800    0.21582100
 C                 -1.09068400    0.16511600   -0.39216100
 H                 -1.03422200    0.49768200   -1.43710600
 C                  0.29159200   -0.33025500   -0.00914200
 C                  2.56628300    0.24155300   -0.04208900
 H                  3.16578200    1.06583000   -0.41933600
 H                  2.66644400    0.16116500    1.04054400
 H                  2.87106700   -0.69590600   -0.50762800
 O                 -1.97258100   -0.92898100   -0.26586300
 H                 -2.85891700   -0.61663600   -0.47368600
 O                  0.53377600   -1.35600100    0.57660900
 O                  1.21361100    0.55431500   -0.39436800

 1 2 1.0 3 1.0 4 1.0 5 1.0
 2
 3
 4
 5 6 1.0 7 1.0 12 1.0
 6
 7 14 2.0 15 1.5
 8 9 1.0 10 1.0 11 1.0 15 1.0
 9
 10
 11
 12 13 1.0
 13
 14
 15

