%Chk=e7_03_rr
# opt freq=vcd 6-311+g(2d,p) geom=connectivity apfd Int=(UltraFine,Acc2E=12)

(1R,4R) camphor

0 1
 C                                                     0.72100000   -0.23400000    0.25000000
 C                                                    -0.84300000   -0.15600000    0.19600000
 C                                                     0.74500000    0.56600000   -1.09500000
 C                                                    -1.17400000    1.37200000    0.06800000
 C                                                    -0.02000000    1.89800000   -0.82300000
 C                                                    -0.11200000   -0.29700000   -2.07000000
 C                                                    -1.10300000   -0.75100000   -1.11900000
 C                                                     1.36100000   -1.67700000    0.22300000
 C                                                     1.41900000    0.46000000    1.47700000
 C                                                    -1.59600000   -0.80500000    1.39200000
 O                                                    -1.98500000   -1.54700000   -1.40100000
 H                                                     1.75100000    0.75000000   -1.48300000
 H                                                    -2.15500000    1.55200000   -0.38500000
 H                                                    -1.17600000    1.88600000    1.03300000
 H                                                    -0.38800000    2.37700000   -1.73500000
 H                                                     0.60300000    2.63400000   -0.30800000
 H                                                    -0.56000000    0.27100000   -2.89000000
 H                                                     0.45800000   -1.12000000   -2.50600000
 H                                                     1.11400000   -2.23000000    1.13100000
 H                                                     2.45000000   -1.63300000    0.14400000
 H                                                     1.03100000   -2.31300000   -0.59700000
 H                                                     1.21900000   -0.08900000    2.40000000
 H                                                     2.50100000    0.50100000    1.34000000
 H                                                     1.10100000    1.48200000    1.66900000
 H                                                    -2.67700000   -0.72800000    1.26000000
 H                                                    -1.34300000   -0.30600000    2.32900000
 H                                                    -1.34400000   -1.86100000    1.49900000

 1 2 1.0 3 1.0 8 1.0 9 1.0
 2 7 1.0 10 1.0 4 1.0
 3 6 1.0 5 1.0 12 1.0
 4 5 1.0 13 1.0 14 1.0
 5 15 1.0 16 1.0
 6 7 1.5 17 1.0 18 1.0
 7 11 2.0
 8 21 1.0 19 1.0 20 1.0
 9 22 1.0 23 1.0 24 1.0
 10 25 1.0 26 1.0 27 1.0
 11
 12
 13
 14
 15
 16
 17
 18
 19
 20
 21
 22
 23
 24
 25
 26
 27


