%Chk=e7_04_2
# APFD/6-311+G(2d,p) Opt Freq=VCD Int=(UltraFine,Acc2E=12)
 
Desflurane conformer 2: Polavarapu conformer D
 
  0   1 
C     1.977050    0.294700    0.089450 
O     0.715650   -0.221100    0.454850 
F     2.270650    0.034600   -1.233550 
H     2.713550   -0.248300    0.722950 
F     2.112650    1.644000    0.332850 
C    -0.341250    0.358400   -0.290750 
H    -0.132450    0.221600   -1.377250 
C    -1.661450   -0.380400    0.027550 
F    -2.713550    0.169200   -0.684150 
F    -1.558250   -1.712000   -0.338950 
F    -1.958250   -0.320300    1.377250 
F    -0.456350    1.712000   -0.025250 
 
