%Chk=e7_08_me
# apfd 6-311+g(2d,p) opt freq geom=connectivity Int=(UltraFine,Acc2E=12)

Methyloxirane

0 1
 C                 -0.82108292    0.45966431   -0.02544926
 C                  0.60823169    0.45938407   -0.00199876
 H                 -1.35279401    0.07285982    0.81868675
 H                  1.13332080    0.12678246    0.86895337
 H                  1.16339684    0.23650567   -0.88913847
 O                 -0.15262804    1.81193920    0.07440521
 C                 -1.62364387    0.02305691   -1.26515483
 H                 -2.61045063    0.43353177   -1.21394143
 H                 -1.68264195   -1.04492874   -1.29389285
 H                 -1.13546256    0.37721062   -2.14898409

 1 2 1.0 3 1.0 6 1.0 7 1.0
 2 4 1.0 5 1.0 6 1.0
 3
 4
 5
 6
 7 8 1.0 9 1.0 10 1.0
 8
 9
 10

--link1--
%Chk=e7_08_me
# APFD 6-311++g(2d,2p) Polar=OptRot Int=(UltraFine,Acc2E=12) CPHF=RdFreq Geom=Check Guess=Read

Substituted oxirane: Methyl

0 1

633nm 589nm 578nm 546nm 436nm 365nm 355nm



