%Chk=e7_04_1
# APFD/6-311+G(2d,p) Opt Freq=VCD Int=(UltraFine,Acc2E=12)

Desflurane conformer 1: Polavarapu conformer E
 
  0   1 
C     1.863650    0.247400    0.001750 
O     0.632950   -0.418300    0.193550 
F     2.869550   -0.618800    0.377550 
H     1.905250    1.144200    0.660850 
F     2.062750    0.604800   -1.315950 
C    -0.465450    0.352400   -0.259750 
H    -0.369850    0.481400   -1.363150 
C    -1.785450   -0.403800    0.014650 
F    -2.869550    0.342400   -0.413650 
F    -1.801650   -1.602800   -0.677350 
F    -1.936450   -0.671800    1.363150 
F    -0.465750    1.602800    0.337050 
 
