%Chk=e7_05_aox
# opt freq 6-311+g(2d,p) geom=connectivity apfd int=(ultrafine,acc2e=12)

alpha pinene oxide (trans)

0 1
 C                 -1.60608496    1.06172833   -0.50958498
 C                 -0.20955990   -0.53403205    0.72119419
 C                  0.83583874    1.18481929    0.12455677
 C                  0.28605257    0.75225282    1.48026781
 C                 -0.28186518    1.81849978   -0.74989001
 C                 -1.43995186   -0.24106238   -0.14252719
 C                  1.13369719   -0.90510080   -1.54969698
 C                  1.04156394   -0.33410150   -0.12243693
 H                 -0.39315182    1.37775108    2.02094639
 H                 -0.43360064    2.84721592   -0.49766107
 H                 -3.14046092   -1.29382281    0.64169073
 H                 -2.21601321   -2.20713471   -0.52635227
 H                 -0.42861250   -1.42675191    1.26888680
 H                  1.66580323    1.85426501    0.03566706
 H                  1.06973133    0.51592671    2.16939594
 H                  0.01934422    1.74298543   -1.77383848
 C                 -2.60355738   -1.24010555   -0.28229468
 C                  2.30181618   -0.85695563    0.59169742
 H                  0.28582048   -0.58378448   -2.11781748
 H                  2.02996526   -0.55416283   -2.01707916
 H                  1.14932050   -1.97408836   -1.50586201
 H                  2.31316044   -0.50167957    1.60092991
 H                  2.29453753   -1.92692996    0.59029586
 H                  3.17338036   -0.50553914    0.08005074
 H                 -3.26267716   -0.91349950   -1.05933367
 O                 -2.11872277    0.84371797    0.78800279
 H                 -2.24010332    1.43150427   -1.28816477

 1 5 1.0 6 2.0 26 1.0 27 1.0
 2 4 1.0 6 1.0 8 1.0 13 1.0
 3 4 1.0 5 1.0 8 1.0 14 1.0
 4 9 1.0 15 1.0
 5 10 1.0 16 1.0
 6 17 1.0 26 1.0
 7 8 1.0 19 1.0 20 1.0 21 1.0
 8 18 1.0
 9
 10
 11 17 1.0
 12 17 1.0
 13
 14
 15
 16
 17 25 1.0
 18 22 1.0 23 1.0 24 1.0
 19
 20
 21
 22
 23
 24
 25
 26
 27

--Link1--
%Chk=e7_05_aox
# APFD spAug-cc-pVDZ Polar=ROA Int=(UltraFine,Acc2E=12) Guess=Read Geom=check

ROA

0 1

532nm

