%Chk=e7_05_ap
# opt freq 6-311+g(2d,p) geom=connectivity apfd int=(ultrafine,acc2e=12)

1S,5S-alpha-Pinene

0 1
 H                 -0.85112096    0.35722298    2.75651358
 C                 -0.58609012    0.06046800    1.74248629
 C                 -0.70988133    0.13320413   -0.69179813
 C                  0.64759052   -1.31968472    0.04971785
 C                 -0.75005633   -1.42410575   -0.62297185
 C                  0.44933461   -1.02869708    1.55068799
 C                 -1.14110075    0.65143437    0.67443709
 C                  1.73584515    1.11645278   -0.16585821
 C                  0.86521276    0.00938880   -0.76528251
 H                 -1.55966846   -1.86411125   -0.03242407
 H                  0.13663571   -1.94928257    2.06704333
 H                 -3.09028946    1.47580269    0.24422072
 H                 -1.79054713    2.66215241    0.23764433
 H                 -1.22069050    0.64040731   -1.51825446
 H                  1.36664449   -2.13227292   -0.11193948
 H                 -0.71844807   -1.90501467   -1.60267446
 H                  1.40268239   -0.73550570    2.01677949
 C                 -2.15426808    1.75824458    0.74668759
 C                  1.36032204   -0.26108002   -2.19567745
 H                  1.42471464    1.40628008    0.83991115
 H                  2.78402365    0.79281328   -0.11913860
 H                  1.70241380    2.01426887   -0.79698362
 H                  0.79638315   -1.04218705   -2.71304013
 H                  1.29348079    0.65090643   -2.80237138
 H                  2.41363126   -0.56969691   -2.18208613
 H                 -2.39129611    2.02446649    1.78222784

 1 2 1.0
 2 6 1.0 7 2.0
 3 5 1.0 7 1.0 9 1.0 14 1.0
 4 5 1.0 6 1.0 9 1.0 15 1.0
 5 10 1.0 16 1.0
 6 11 1.0 17 1.0
 7 18 1.0
 8 9 1.0 20 1.0 21 1.0 22 1.0
 9 19 1.0
 10
 11
 12 18 1.0
 13 18 1.0
 14
 15
 16
 17
 18 26 1.0
 19 23 1.0 24 1.0 25 1.0
 20
 21
 22
 23
 24
 25
 26

--Link1--
%Chk=e7_05_ap
# APFD spAug-cc-pVDZ Polar=ROA Int=(UltraFine,Acc2E=12) Guess=Read Geom=check

ROA

0 1

532nm



