%Chk=e7_02_ch2
# opt freq 6-311+g(2d,p) geom=connectivity apfd Int=(UltraFine,Acc2E=12)

Cyclopropane

0 1
 C                 -0.60414804   -0.14578295    0.41809374
 C                  0.89696696   -0.14578295    0.41809374
 C                  0.14638196    1.15419205    0.41809374
 H                 -1.14074404   -0.45565795   -0.49576426
 H                 -1.14074404   -0.45565795    1.33195174
 H                  1.43352796   -0.45554995   -0.49579426
 H                  1.43352796   -0.45554995    1.33198174
 H                  0.14615896    1.77372005    1.33203774
 H                  0.14615896    1.77372005   -0.49585026

 1 2 1.0 3 1.0 4 1.0 5 1.0
 2 3 1.0 6 1.0 7 1.0
 3 8 1.0 9 1.0
 4
 5
 6
 7
 8
 9

--link1--
%Chk=e7_02_ch2
# apfd aug-cc-pVTZ nmr=mixed Int=(UltraFine,Acc2E=12) guess=read geom=allcheck

