%Chk=e7_07_gt_gas
# apfd/6-311+g(2d,p) opt freq Int=(UltraFine,Acc2E=12) 

methyl-beta-D-gluco-pyranoside (gt conformer): gas phase

0 1
  C              0.302469   -1.675381    0.222812
  C             -1.043082   -1.156788   -0.267148
  C             -1.227674    0.290145    0.193928
  C              1.126079    0.689506    0.230671
  C              1.432225   -0.745531   -0.214985
  H             -1.057820   -1.158258   -1.367299
  H              0.283693   -1.700000    1.325181
  H              1.105778    0.731218    1.331188
  H              1.488615   -0.768681   -1.315862
  H             -1.249462    0.339228    1.299560
  O             -0.154154    1.089121   -0.289169
  O              0.597362   -2.969608   -0.288048
  H             -0.152435   -3.539459   -0.050021
  O              2.666582   -1.140495    0.360932
  H              2.744209   -2.095549    0.197463
  C              2.129592    1.715205   -0.282958
  H              2.177160    1.648219   -1.382416
  H              3.119547    1.483580    0.116717
  O              1.794486    3.023756    0.144107
  H              0.871314    3.158006   -0.125763
  O             -2.428910    0.745645   -0.338529
  C             -2.866157    2.001840    0.171577
  H             -2.188165    2.809229   -0.125287
  H             -3.855147    2.183453   -0.254353
  H             -2.940620    1.977673    1.268296
  O             -2.046383   -2.013793    0.260607
  H             -2.899244   -1.659629   -0.039978

--Link1--
%Chk=e7_07_gt_gas
# apfd spAug-cc-pVTZ guess=read geom=check polar=roa Int=(UltraFine,Acc2E=12)

methyl-beta-D-gluco-pyranoside (gt conformer). ROA gas phase

0 1

532nm

