%Chk=e7_05_pi
# opt=calcfc freq 6-311+g(2d,p) geom=connectivity apfd int=(ultrafine,acc2e=12)

2,3-pinanediol

0 1
 C                 -1.67723219    1.07199901   -0.32566117
 C                 -0.20198909   -0.53104859    0.75079335
 C                  0.82484006    1.15761203    0.13845758
 C                  0.30500938    0.74233807    1.51702514
 C                 -0.32271781    1.73695742   -0.71857412
 C                 -1.46810852   -0.22053030   -0.06216825
 C                  1.07619257   -0.93376357   -1.53762565
 C                  1.02081285   -0.35758036   -0.11054962
 H                 -0.36094751    1.36766350    2.07413333
 H                 -0.43679739    2.79157618   -0.57834173
 H                 -2.96338893   -1.69896503    0.37760507
 H                 -1.90888946   -2.12730339   -0.94814898
 H                 -0.39831594   -1.44306906    1.27479184
 H                  1.64915788    1.82850217    0.01473799
 H                  1.10147939    0.50631879    2.19143631
 H                 -0.07028888    1.53424628   -1.73842109
 C                 -2.45014781   -1.32878725   -0.48521123
 C                  2.29292144   -0.89229744    0.57312967
 H                  0.21894164   -0.60640808   -2.08795212
 H                  1.96508337   -0.59250718   -2.02580310
 H                  1.08303082   -2.00271053   -1.49066155
 H                  2.33283583   -0.53569193    1.58116705
 H                  2.27467677   -1.96214172    0.57373208
 H                  3.15511937   -0.55058289    0.03951381
 H                 -3.16049105   -0.93011600   -1.17902224
 O                 -2.20543426    1.65195304    0.86997920
 H                 -2.36767836    1.22033516   -1.12951468
 H                 -1.57978218    1.53067159    1.58792786
 O                 -2.24223319   -0.00786853    1.12121925
 H                 -2.27215839   -0.81884977    1.63406806

 1 5 1.0 6 2.0 26 1.0 27 1.0
 2 4 1.0 6 1.0 8 1.0 13 1.0
 3 4 1.0 5 1.0 8 1.0 14 1.0
 4 9 1.0 15 1.0
 5 10 1.0 16 1.0
 6 17 1.0 29 1.0
 7 8 1.0 19 1.0 20 1.0 21 1.0
 8 18 1.0
 9
 10
 11 17 1.0
 12 17 1.0
 13
 14
 15
 16
 17 25 1.0
 18 22 1.0 23 1.0 24 1.0
 19
 20
 21
 22
 23
 24
 25
 26 28 1.0
 27
 28
 29 30 1.0
 30

--Link1--
%Chk=e7_05_pi
# APFD spAug-cc-pVDZ Polar=ROA Int=(UltraFine,Acc2E=12) Guess=Read Geom=check

ROA

0 1

532nm

