%Chk=e7_04_3
# APFD/6-311+G(2d,p) Opt Freq=VCD Int=(UltraFine,Acc2E=12)
 
Desflurane conformer 3: Polavarapu conformer F
 
  0   1 
C     1.855500    0.350450    0.174600 
O     0.602900   -0.245550    0.441200 
F     1.950200    1.616450    0.711100 
H     2.038200    0.376250   -0.924400 
F     2.822300   -0.444650    0.755000 
C    -0.434400    0.290950   -0.359400 
H    -0.240600   -0.029750   -1.410100 
C    -1.793900   -0.306750    0.070900 
F    -2.822300    0.239150   -0.677400 
F    -1.799800   -1.674250   -0.147000 
F    -2.046100   -0.072250    1.410100 
F    -0.458800    1.674250   -0.335500 
 
