%Chk=e7_07_gg_gas
# APFD/6-311+G(2d,p) opt freq Int=(UltraFine,Acc2E=12)

methyl-beta-D-gluco-pyranoside (gg conformer) gas phase

0 1
 C          0.463800    1.566243   -0.190352
 C         -0.889653    1.151795    0.369587
 C         -1.315107   -0.167931   -0.273407
 C          0.959153   -0.867010   -0.589056
 C          1.489010    0.450555   -0.005852
 H         -0.803173    0.982816    1.453413
 H          0.347381    1.755209   -1.270895
 H          0.887989   -0.765157   -1.684358
 H          1.665397    0.304933    1.069707
 H         -1.439469   -0.036999   -1.365581
 O         -0.332272   -1.167975   -0.034671
 O          0.977242    2.725893    0.453593
 H          0.290371    3.409071    0.382475
 O          2.699078    0.763289   -0.679756
 H          2.958040    1.646299   -0.367986
 C          1.839805   -2.066602   -0.245608
 H          2.864842   -1.864117   -0.565636
 H          1.467318   -2.946210   -0.794283
 O          1.875589   -2.307585    1.150703
 H          0.947105   -2.351637    1.434376
 O         -2.516687   -0.552143    0.311810
 C         -3.157417   -1.653991   -0.326302
 H         -2.550945   -2.562493   -0.249887
 H         -4.107689   -1.802913    0.190663
 H         -3.350250   -1.436142   -1.386774
 O         -1.808389    2.198347    0.085159
 H         -2.670942    1.910373    0.426004

--Link1--
%Chk=e7_07_gg_gas
# apfd spAug-cc-pVTZ guess=read geom=check polar=roa Int=(UltraFine,Acc2E=12) 

methyl-beta-D-gluco-pyranoside (gg conformer). ROA gas phase

0 1

532nm

