%Chk=x7_03_prop
# opt freq apfd/6-311+g(2d,p) geom=connectivity Int=(UltraFine,Acc2E=12)

1.1.1-Propellane 

0 1
 C                  0.00000000    0.00000000    1.28901800
 C                  1.11632233    0.00000000   -0.64450900
 C                 -1.11632233   -0.00000000   -0.64450900
 C                  0.00000000   -0.77213000    0.00000000
 C                  0.00000000    0.77213000    0.00000000
 H                  0.90526329    0.00000000    1.87019487
 H                 -0.90526329   -0.00000000    1.87019487
 H                  1.16700462   -0.00000000   -1.71907844
 H                  2.07226791   -0.00000000   -0.15111643
 H                 -2.07226791   -0.00000000   -0.15111643
 H                 -1.16700462   -0.00000000   -1.71907844

 1 4 1.0 5 1.0 6 1.0 7 1.0
 2 4 1.0 5 1.0 8 1.0 9 1.0
 3 4 1.0 5 1.0 10 1.0 11 1.0
 4 5 1.0
 5
 6
 7
 8
 9
 10
 11

--Link1--
%Chk=x7_03_prop
# apfd/aug-cc-pVTZ NMR=Mixed Geom=Allcheck Guess=Read Int=(UltraFine,Acc2E=12)

