%Chk=x7_08_1s6r
# opt=modredundant 6-31g(d,p) geom=connectivity apfd
scrf=(solvent=water) int=(ultrafine,acc2e=12)

Aeroplysinin-1 (1S,6R) scan

0 1
 C                 -1.03180680   -1.95546696   -0.79792152
 C                 -1.53609827   -0.73154701   -0.00857906
 C                 -0.82800844    0.54792597   -0.48593871
 C                  0.47824208    0.59357243   -0.84491820
 C                  1.21570430   -0.86343602   -0.84147734
 C                  0.56671048   -2.08547194   -0.79824267
 O                  1.13558041    1.82173649   -1.16805795
 O                 -1.47324947   -0.23059508    1.32932869
 Br                 3.11999182   -0.92071218   -0.97752298
 Br                -1.77493405    2.20504124   -0.55942186
 C                  0.62275799    2.97619860   -0.49788638
 H                  1.17521440    3.84035574   -0.80272079
 H                 -0.40918745    3.10558412   -0.74937685
 H                  1.09891030   -3.01300721   -0.76161867
 O                 -1.43176169   -1.89363525   -2.16945817
 H                 -0.78227478   -2.55208168   -2.76125126
 C                 -1.84175960   -2.78810200    0.21316490
 H                 -1.72427737   -3.82871466   -0.00643044
 H                 -1.48737757   -2.59027763    1.20320416
 C                 -3.27022139   -2.48757416    0.18523783
 N                 -4.41103453   -2.24756708    0.16292223
 H                  0.71852678    2.84648424    0.55989561
 H                 -2.29535472   -0.38019713   -0.67564945
 H                 -2.24902415    0.53517765    1.46112310

 1 2 1.0 6 1.0 15 1.0 17 1.0
 2 3 1.0 8 1.0 23 1.0
 3 4 2.0 10 1.0
 4 5 1.0 7 1.0
 5 6 2.0 9 1.0
 6 14 1.0
 7 11 1.0
 8 24 1.0
 9
 10
 11 12 1.0 13 1.0 22 1.0
 12
 13
 14
 15 16 1.0
 16
 17 18 1.0 19 1.0 20 1.0
 18
 19
 20 21 3.0
 21
 22
 23
 24

D 3 4 7 11 S 12 -30.000000
D 6 1 17 20 S 12 30.000000

