%Chk=x7_05_4
# opt freq=vcd 6-311+g(2d,p) geom=connectivity apfd Int=(UltraFine,Acc2E=12)

(1S,6R)-3-oxabicyclo[4.3.1]decane-4,7-dione (Stephens05b 2d)

0 1
 C                  0.75872900    0.45671800    1.14896500
 C                  1.16204300   -0.09562300   -1.37119600
 C                  0.83455800   -1.57803400   -1.06580200
 C                  0.03779200   -1.80629100    0.23852900
 H                  0.07573800   -2.88148600    0.46585800
 H                  1.32723300    0.94156800    1.94917900
 H                  1.73570000   -1.43710600    1.52429500
 C                  0.71178600   -1.06057000    1.39847900
 H                  0.18678600   -1.26220700    2.34223900
 H                  0.30495000   -2.01772500   -1.91929600
 H                  1.77965000   -2.12761500   -0.97032800
 C                 -0.65435200    1.10758000    1.15990200
 H                 -0.55762900    2.18452500    1.30917500
 H                 -1.21037500    0.70484100    2.01854800
 C                 -1.46202400   -1.49254500    0.12561000
 H                 -1.93017700   -1.50195600    1.11943700
 H                 -1.95176000   -2.26090200   -0.47804600
 H                  0.29869500    0.38824500   -1.84511800
 H                  1.98938100   -0.01468400   -2.08258200
 C                  1.53096600    0.74165700   -0.14832800
 O                  2.39746500    1.59282900   -0.18897400
 O                 -1.81009300   -0.27816800   -0.56327900
 C                 -1.50416300    0.96347400   -0.09754400
 O                 -1.90489800    1.91862900   -0.71837900

 1 6 1.0 8 1.0 12 1.0 20 1.0
 2 3 1.0 18 1.0 19 1.0 20 1.0
 3 4 1.0 10 1.0 11 1.0
 4 5 1.0 8 1.0 15 1.0
 5
 6
 7 8 1.0
 8 9 1.0
 9
 10
 11
 12 13 1.0 14 1.0 23 1.0
 13
 14
 15 16 1.0 17 1.0 22 1.0
 16
 17
 18
 19
 20 21 2.0
 21
 22 23 1.0
 23 24 2.0
 24

