%Chk=x7_05_2
# opt freq=vcd 6-311+g(2d,p) geom=connectivity apfd Int=(UltraFine,Acc2E=12)

(1R,6S)-2-oxabicyclo[4.3.1]decane-3,8-dione (Stephens05b 2b)

0 1
 C                 -0.72053400   -1.42493600    0.71221400
 C                 -1.95549400   -0.84745800   -0.01890500
 C                 -1.74133600    0.54865200   -0.58935600
 C                 -1.00923700    1.53728400    0.31376900
 C                  0.11421800    0.96200400    1.20146300
 H                  0.25083600    1.64687100    2.04267100
 H                 -2.30018200   -1.50047300   -0.82706300
 H                 -1.04940100   -2.32885900    1.24150100
 H                 -1.00507000   -0.28299600    2.52536200
 C                 -0.22280600   -0.42219900    1.76618300
 H                  0.65764600   -0.81155200    2.29122800
 H                 -0.64361900    2.37523300   -0.28625100
 H                 -1.77727400    1.94379000    0.99005100
 H                 -2.78145400   -0.76702400    0.70521900
 O                 -2.17826900    0.88265700   -1.67408100
 C                  0.39179900   -1.86544800   -0.25639300
 H                 -0.02146400   -2.61782900   -0.93989900
 H                  1.18135600   -2.37094200    0.31524400
 C                  1.03082500   -0.76090300   -1.11983100
 H                  1.68130800   -1.22367700   -1.86561000
 H                  0.26383700   -0.21140700   -1.67801000
 C                  1.92605700    0.23598700   -0.39696400
 O                  3.09050300    0.37741600   -0.68467900
 O                  1.42058300    1.03629800    0.58531900

 1 2 1.0 8 1.0 10 1.0 16 1.0
 2 3 1.0 7 1.0 14 1.0
 3 4 1.0 15 2.0
 4 5 1.0 12 1.0 13 1.0
 5 6 1.0 10 1.0 24 1.0
 6
 7
 8
 9 10 1.0
 10 11 1.0
 11
 12
 13
 14
 15
 16 17 1.0 18 1.0 19 1.0
 17
 18
 19 20 1.0 21 1.0 22 1.0
 20
 21
 22 23 2.0 24 1.0
 23
 24

