%Chk=x7_05_3
# opt freq=vcd 6-311+g(2d,p) geom=connectivity apfd Int=(UltraFine,Acc2E=12)

(1R,6S)-3-oxabicyclo[4.3.1]decane-4,9-dione (Stephens05b 2c)

0 1
 C                 -1.15425600   -0.45436600    0.96077100
 C                 -0.90718300    0.62662500   -1.40613100
 C                 -0.18253800    1.82239500   -0.74137600
 C                  0.41753800    1.51959700    0.65016500
 H                  0.69365500    2.48109800    1.10188100
 H                 -1.98698800   -0.83271500    1.56512100
 H                 -1.50544500    1.57275300    1.63252800
 C                 -0.65749700    0.88112500    1.53896900
 H                 -0.27247000    0.72017800    2.55525300
 H                  0.59318100    2.19875700   -1.41871900
 H                 -0.90478000    2.63902300   -0.61399100
 C                 -0.07606500   -1.55700100    0.99622200
 H                 -0.55336400   -2.53299800    0.88914200
 H                  0.44860300   -1.53650100    1.96087900
 C                  1.72982400    0.69266400    0.62174900
 H                  1.97485400    0.38209700    1.64759700
 H                  2.55218300    1.32042000    0.27090300
 O                  0.87533800   -1.54115700   -0.08151200
 C                  1.76365700   -0.52782300   -0.28736800
 O                  2.54109800   -0.63374100   -1.20573000
 H                 -0.17936500   -0.03409700   -1.89476300
 H                 -1.58363700    0.96864600   -2.19550800
 C                 -1.71260100   -0.25739100   -0.45891200
 O                 -2.74164800   -0.80280400   -0.80586700

 1 6 1.0 8 1.0 12 1.0 23 1.0
 2 3 1.0 21 1.0 22 1.0 23 1.0
 3 4 1.0 10 1.0 11 1.0
 4 5 1.0 8 1.0 15 1.0
 5
 6
 7 8 1.0
 8 9 1.0
 9
 10
 11
 12 13 1.0 14 1.0 18 1.0
 13
 14
 15 16 1.0 17 1.0 19 1.0
 16
 17
 18 19 1.0
 19 20 2.0
 20
 21
 22
 23 24 2.0
 24

