%Chk=x7_07_cis
# opt freq 6-311+g(2d,p) geom=connectivity apfd int=(ultrafine,acc2e=12)

Alpha-pinene oxide cis form

0 1
 C                 -1.24462251   -0.31536876    0.95800494
 C                  0.16973779    0.41585663   -0.94467013
 C                  0.92532849   -1.22074208    0.17633022
 C                  0.57984535   -1.03146910   -1.30709124
 C                 -0.32299883   -1.51859895    1.04889648
 C                 -1.20765161    0.47898054   -0.26761419
 C                  1.29670727    1.15413290    1.40319338
 C                  1.29727221    0.28797343    0.12986410
 H                 -0.11017114   -1.68967368   -1.79241995
 H                 -0.78871382   -2.41172591    0.68787877
 H                 -2.24462201    1.92704389   -1.46879622
 H                 -1.55015234    2.58356787   -0.00600615
 H                  0.16525070    1.19466238   -1.67838770
 H                  1.63588505   -1.96503301    0.46965667
 H                  1.46354772   -1.03638403   -1.91037059
 H                 -0.05635856   -1.65051666    2.07671003
 C                 -2.06618740    1.74720767   -0.42921937
 C                  2.68992205    0.50490827   -0.49067252
 H                  0.35329359    1.05883235    1.89896394
 H                  2.07794302    0.82730403    2.05722212
 H                  1.45849266    2.17807441    1.13810989
 H                  2.77309053   -0.06910044   -1.38983714
 H                  2.82214824    1.54244571   -0.71635438
 H                  3.44214771    0.19210700    0.20302187
 H                 -3.00030299    1.61218206    0.07486014
 H                 -2.18123823   -0.55367725    1.41719994
 O                 -0.67779104    0.94577434    1.17086401

 1 5 1.0 6 1.0 26 1.0 27 1.0
 2 4 1.0 6 1.0 8 1.0 13 1.0
 3 4 1.0 5 1.0 8 1.0 14 1.0
 4 9 1.0 15 1.0
 5 10 1.0 16 1.0
 6 17 1.0 27 1.0
 7 8 1.0 19 1.0 20 1.0 21 1.0
 8 18 1.0
 9
 10
 11 17 1.0
 12 17 1.0
 13
 14
 15
 16
 17 25 1.0
 18 22 1.0 23 1.0 24 1.0
 19
 20
 21
 22
 23
 24
 25
 26
 27

--Link1--
%Chk=x7_07_cis
# APFD spAug-cc-pVDZ Polar=ROA Int=(UltraFine,Acc2E=12) Guess=Read Geom=check

ROA

0 1

532nm

