%Chk=x7_03_bicy
# opt freq 6-311+g(2d,p) geom=connectivity apfd Int=(UltraFine,Acc2E=12)

Bicyclobutane OPT FREQ

0 1
 C                 -0.91681580   -0.38410828   -0.01331150
 C                  0.58319516   -0.42982145   -0.26209369
 C                 -0.17106366    0.91177881   -0.21279082
 H                 -1.56931241   -0.71415993   -0.79447350
 H                 -1.38159682   -0.67652809    0.90503988
 C                  0.48396878    0.42809445   -1.58551350
 H                  1.14432598    1.26051086   -1.71165349
 H                 -0.39839206    0.41170303   -2.19055124
 H                  0.34007139    1.48787579    0.53001012
 H                  1.36057988   -0.40854464    0.47283508

 1 2 1.0 3 1.0 4 1.0 5 1.0
 2 3 1.0 6 1.0 10 1.0
 3 6 1.0 9 1.0
 4
 5
 6 7 1.0 8 1.0
 7
 8
 9
 10

--Link1--
%Chk=x7_03_bicy
# APFD/aug-cc-pVTZ NMR=Mixed Guess=Read Geom=AllCheck Int=(UltraFine,Acc2E=12)

