%Chk=x7_02_s
# opt freq 6-311+g(2d,p) geom=connectivity apfd Int=(UltraFine,Acc2E=12)

Substituted cyclopropane: S

0 1
 C                 -0.34598982   -0.46135984    0.21233269
 C                  0.65337611    0.62243092    0.02810579
 H                 -1.17329141   -0.54893140   -0.46057392
 H                 -0.00066562   -1.43699633    0.48396595
 H                  0.46278631    1.37668510   -0.70652075
 H                  1.69925010    0.39728555    0.04700425
 S                 -0.32727583    0.76866969    1.55936533

 1 2 1.0 3 1.0 4 1.0 7 1.0
 2 5 1.0 6 1.0 7 1.0
 3
 4
 5
 6
 7

--link1--
%Chk=x7_02_s
# apfd aug-cc-pVTZ nmr=mixed Int=(UltraFine,Acc2E=12) guess=read geom=allcheck

