%Chk=x7_01_sime3
# opt freq 6-311+g(2d,p) geom=connectivity apfd Int=(UltraFine,Acc2E=12)

CHCSiMe3

0 1
 C                  0.05452360   -0.04763518    0.32263435
 C                  0.10758902   -0.04985961   -0.89334587
 H                  0.15127771   -0.05020000   -1.95510715
 C                  0.41590556    1.67935196    2.70888921
 H                  0.28569239    1.78262175    3.79394706
 H                  1.50068292    1.87147994    2.20224656
 H                 -0.16155106    2.33672992    2.44587682
 C                 -1.66193688   -0.43864891    2.68008128
 H                 -1.94194034   -1.47333146    2.32460429
 H                 -1.68102666   -0.38431358    3.70842923
 H                 -2.28979490    0.29566056    2.30402154
 C                  1.14735501   -1.20307907    2.80286130
 H                  0.95009803   -2.26317684    2.43435942
 H                  2.01006212   -0.90552983    2.47102354
 H                  1.14964422   -1.12006946    3.88437970
 Si                -0.03658109   -0.03000022    2.14729454

 1 2 3.0 16 1.0
 2 3 1.0
 3
 4 5 1.0 6 1.0 7 1.0 16 1.0
 5
 6
 7
 8 9 1.0 10 1.0 11 1.0 16 1.0
 9
 10
 11
 12 13 1.0 14 1.0 15 1.0 16 1.0
 13
 14
 15
 16

--Link1--
%Chk=x7_01_sime3
# APFD/6-311+G(2d,p) NMR Guess=Read Geom=Allcheck Int=(UltraFine,Acc2E=12)



