%Chk=x7_04
# opt freq=vcd 6-311+g(2d,p) geom=connectivity apfd Int=(UltraFine,Acc2E=12)

(1S,4R)-(+)-fenchone

0 1
 C                 -0.23231909   -1.12899194    0.20452421
 C                  0.40206747    0.56279951   -1.28016148
 C                 -0.08156150    1.27226283    0.01373317
 C                  1.02788457   -0.64457601   -0.39130941
 C                 -0.95906465   -1.48413581   -1.07739160
 C                 -0.13854324   -0.61633856   -2.10562010
 C                 -0.78646182    0.15995382    0.76619857
 C                 -0.23540060   -2.25255869    1.25770428
 C                 -1.02350819    2.45398248   -0.28270419
 C                  1.12015732    1.80277406    0.81749291
 O                 -1.66307216    0.28403000    1.66047481
 H                  1.75343770   -0.29670146    0.31399617
 H                  1.48825644   -1.40934770   -0.98129418
 H                 -1.99194077   -1.23553195   -0.94986496
 H                 -0.89511443   -2.50399135   -1.39473218
 H                  0.72109773   -1.15386263   -2.44765119
 H                 -0.74002505   -0.35156784   -2.95002291
 H                 -1.24197092   -2.45861445    1.55646375
 H                  0.33354432   -1.94422702    2.10983880
 H                  0.20008374   -3.13549464    0.83856527
 H                 -0.49905683    3.19463715   -0.84952111
 H                 -1.35976247    2.88186236    0.63857311
 H                 -1.86617473    2.10651286   -0.84313079
 H                  1.78775834    0.99551664    1.03553951
 H                  0.77390762    2.23630373    1.73240448
 H                  1.63376646    2.54510378    0.24299118
 H                  1.18580429    1.09425367   -1.77837134

 1 8 1.0 5 1.0 7 1.0 4 1.0
 2 3 1.0 4 1.0 6 1.0 27 1.0
 3 7 1.0 10 1.0 9 1.0
 4 12 1.0 13 1.0
 5 14 1.0 15 1.0 6 1.0
 6 17 1.0 16 1.0
 7 11 2.0
 8 18 1.0 19 1.0 20 1.0
 9 22 1.0 21 1.0 23 1.0
 10 24 1.0 25 1.0 26 1.0
 11
 12
 13
 14
 15
 16
 17
 18
 19
 20
 21
 22
 23
 24
 25
 26
 27

