%Chk=x7_01_cl
# opt freq 6-311+g(2d,p) geom=connectivity apfd Int=(UltraFine,Acc2E=12)

CHCCl

0 1
 C                  0.00000    0.00000    0.60025694
 C                  0.00000    0.00000   -0.60094306
 H                  0.00000    0.00000   -1.67094306
 Cl                -0.00000   -0.00000    2.36025694

 1 2 3.0 4 1.0
 2 3 1.0
 3
 4

--Link1--
%Chk=x7_01_cl
# APFD/6-311+G(2d,p) NMR Guess=Read Geom=Allcheck Int=(UltraFine,Acc2E=12)

