%Chk=x7_02_sih2
# opt freq 6-311+g(2d,p) geom=connectivity apfd Int=(UltraFine,Acc2E=12)

Substituted cyclopropane: SiH2

0 1
 C                 -0.09446929   -0.40843696    0.23008227
 C                  0.87879357    0.77650435    0.31222116
 H                 -0.68993280   -0.49609186   -0.65458706
 H                  0.27433820   -1.34845119    0.58399508
 H                  0.83965991    1.52871613   -0.44774331
 H                  1.89806201    0.61776106    0.59646122
 Si                -0.53900642    0.87746532    1.62912761
 H                 -0.51220849    0.00630380    2.81287568
 H                 -1.89957228    1.25706413    1.22210760

 1 2 1.0 3 1.0 4 1.0 7 1.0
 2 5 1.0 6 1.0 7 1.0
 3
 4
 5
 6
 7 8 1.0 9 1.0
 8
 9

--link1--
%Chk=x7_02_sih2
# apfd aug-cc-pVTZ nmr=mixed Int=(UltraFine,Acc2E=12) guess=read geom=allcheck

