%Chk=x7_01_sih3
# opt freq 6-311+g(2d,p) geom=connectivity apfd Int=(UltraFine,Acc2E=12)

CHCSiH3

0 1
 C                 -0.00000023   -0.00000009    1.47600010
 C                 -0.00000000   -0.00000000    2.67720010
 H                  0.00000000    0.00000000    3.74720010
 Si                -0.00000000   -0.00000000   -0.46399990
 H                  0.20555855    1.37060051   -0.95399981
 H                  1.08419565   -0.86331910   -0.95399981
 H                 -1.28975403   -0.50728134   -0.95400008

 1 2 3.0 4 1.0
 2 3 1.0
 3
 4 5 1.0 6 1.0 7 1.0
 5
 6
 7

--Link1--
%Chk=x7_01_sih3
# APFD/6-311+G(2d,p) NMR Guess=Read Geom=Allcheck Int=(UltraFine,Acc2E=12)

