%Chk=x7_01_c2h3
# opt freq 6-311+g(2d,p) geom=connectivity apfd int=(ultrafine,acc2e=12)

CHCC2H3 vinylacetylene

0 1
 C                 -0.05641812    0.10835242    0.53442830
 C                  0.09388838   -0.08148431   -0.64330085
 H                  0.25814432   -0.20406780   -1.69403569
 C                 -0.26870641    0.32124409    2.04616083
 H                 -0.78058367   -0.42086290    2.61872169
 C                  0.19810883    1.44056104    2.64692666
 H                  0.71572045    2.18422094    2.07724257
 H                  0.04136878    1.58599886    3.69685083

 1 2 3.0 4 1.0
 2 3 1.0
 3
 4 5 1.0 6 2.0
 5
 6 7 1.0 8 1.0
 7
 8

--Link1--
%Chk=x7_01_c2h3
# APFD/6-311+G(2d,p) NMR Guess=Read Geom=Allcheck Int=(UltraFine,Acc2E=12)



