%Chk=x7_08_scan2-example
# opt=modredundant 6-31g(d,p) geom=connectivity apfd Int=(Ultrafine,Acc2E=12)
scrf(solvent=water)

Aeroplysinin-1 second scan example input file

0 1
 C                  0.99379600   -1.72081000    0.33498900
 C                  1.47537400   -0.30164700    0.70233100
 C                  0.63394600    0.76146300    0.05271600
 C                 -0.66387700    0.58002600   -0.25089200
 C                 -1.25934200   -0.74769300   -0.00240700
 C                 -0.51839200   -1.80987500    0.32517600
 O                 -1.43481600    1.55085800   -0.79321400
 O                  1.39680100   -0.21861000    2.11936500
 Br                -3.14189300   -0.86366500   -0.14504600
 Br                 1.44224300    2.45560400   -0.11028700
 C                 -2.04581300    2.42133100    0.16265100
 H                 -2.61326800    3.14969100   -0.41682400
 H                 -1.28477700    2.93680100    0.75756200
 H                 -0.95364000   -2.78297400    0.52653900
 O                  1.56184500   -2.65674300    1.21314400
 H                  1.60058000   -2.21535300    2.07505300
 C                  1.47570500   -2.09558600   -1.08588500
 H                  1.03891000   -1.41014800   -1.82026200
 H                  1.12011000   -3.10565200   -1.31346000
 C                  2.93094600   -2.06593800   -1.20113900
 N                  4.08637200   -2.00913000   -1.28503500
 H                 -2.72529200    1.86280900    0.81479500
 H                  2.51828700   -0.20215100    0.37300600
 H                  1.85753400    0.58131900    2.39588400

 1 2 1.0 6 1.0 15 1.0 17 1.0
 2 3 1.0 8 1.0 23 1.0
 3 4 2.0 10 1.0
 4 5 1.0 7 1.0
 5 6 2.0 9 1.0
 6 14 1.0
 7 11 1.0
 8 24 1.0
 9
 10
 11 12 1.0 13 1.0 22 1.0
 12
 13
 14
 15 16 1.0
 16
 17 18 1.0 19 1.0 20 1.0
 18
 19
 20 21 3.0
 21
 22
 23
 24

D 3 2 8 24 S 3 90.000000
D 6 1 15 16 S 3 90.000000

