%Chk=x7_10_3a
# opt freq 6-311+g(2d,p) scrf=(solvent=water) geom=connectivity apfd int=(ultrafine,acc2e=12)

(R)-lactamide Hopmann conformation 3

0 1
 C                  0.67127600   -0.02384500   -0.39559100
 C                 -0.81337500    0.20169800   -0.07356500
 C                  1.52881400    0.99707500    0.33006800
 H                  1.15958700    2.00216300    0.12621800
 H                  1.48028700    0.84041600    1.41359300
 H                  2.56949900    0.92070500    0.00857000
 H                 -1.04092900   -1.81236000    0.18336200
 H                 -2.48855800   -0.85717000    0.39127200
 N                 -1.49012900   -0.91631300    0.27828500
 O                 -1.31087300    1.30963000   -0.14545000
 O                  1.08912500   -1.36444500   -0.16529000
 H                  0.75964700    0.12735400   -1.47719500
 H                  1.44506600   -1.41797100    0.72662600

 1 2 1.0 3 1.0 11 1.0 12 1.0
 2 9 1.5 10 2.0
 3 4 1.0 5 1.0 6 1.0
 4
 5
 6
 7 9 1.0
 8 9 1.0
 9
 10
 11 13 1.0
 12
 13

--link1--
%Chk=x7_10_3a
# apfd spAug-cc-pvTZ Polar=ROA Geom=Check Guess=Read Int=(UltraFine,Acc2E=12) SCRF(Solvent=Water)

(R)-lactamide Hopmann conformation 3. ROA in water (implicit only)

0 1

532nm

