%Chk=x7_11_chloro
# opt freq=vcd 6-311+g(2d,p) geom=connectivity apfd
int=(ultrafine,acc2e=12)

Chloroform molecule VCD

0 1
 C                 -2.76357900    0.01060400   -0.09985600
 H(Iso=2)          -1.85759600   -0.08915600   -0.69220600
 Cl                -4.02420600   -0.99209200   -0.83484400
 Cl                -3.22711000    1.72493700   -0.08694900
 Cl                -2.37286300   -0.55284200    1.54383500

 1 2 1.0 3 1.0 4 1.0 5 1.0
 2
 3
 4
 5

