%Chk=x7_10_2ax
# scrf=(solvent=water) geom=connectivity apfd 6-311+G(2d,p) Int=(UltraFine,Acc2E=12) Opt Freq

(R)-lactamide Hopmann conformation 2 + 4 H2O

0 1
 C                 -0.43473539    0.19930396   -0.57229832
 C                  0.70506274   -0.50906600    0.18306388
 C                 -1.77416622   -0.09185777    0.12957196
 H                 -1.95163923   -1.14701411    0.13547032
 H                 -1.73526841    0.26890516    1.13611078
 H                 -2.56624399    0.40017644   -0.39523120
 H                  1.05132195    1.09956027    1.41733750
 H                  2.07833112   -0.26228864    1.70208699
 N                  1.33546636    0.16840012    1.19099875
 O                  1.01691567   -1.71187320   -0.16710324
 O                 -0.19734165    1.60944085   -0.58029115
 H                 -0.47374921   -0.16148640   -1.57884287
 H                 -0.90845845    2.05070119   -1.05003621
 O                  2.79021878   -2.83141153    0.99819454
 H                  2.51811406   -3.62936468    1.45716405
 H                  2.07350930   -2.44331816    0.49168694
 O                  3.12695817   -0.99297440    2.35607353
 H                  3.09928094   -1.78887143    1.88728552
 H                  3.97809125   -0.55514883    2.28317659
 O                 -1.96935088    2.72525081   -1.75260535
 H                 -1.80142971    3.67033745   -1.75479251
 H                 -2.80526965    2.54984637   -1.31460352
 O                  0.64132198    2.44124686    1.74287742
 H                  1.38239224    3.03984305    1.62485234
 H                 -0.07805788    2.70510295    1.16486474

 1 2 1.0 3 1.0 11 1.0 12 1.0
 2 9 1.5 10 2.0
 3 4 1.0 5 1.0 6 1.0
 4
 5
 6
 7 9 1.0 23 0.5
 8 9 1.0 17 0.5
 9
 10 16 0.5
 11 13 1.0
 12
 13 20 0.5
 14 15 1.0 16 1.0 18 0.5
 15
 16
 17 18 1.0 19 1.0
 18
 19
 20 21 1.0 22 1.0
 21
 22
 23 24 1.0 25 1.0
 24
 25

--link1--
%Chk=x7_10_2ax
# apfd spAug-cc-pvTZ Polar=ROA Geom=Check Guess=Read Int=(UltraFine,Acc2E=12) SCRF(Solvent=Water)

(R)-lactamide Hopmann conformation 2 + 4 H2O. ROA

0 1

532nm

