%Chk=x7_13_240
# opt freq 6-311+g(2d,p) geom=connectivity apfd Int=(UltraFine,Acc2E=12)

Epichlorohydrin 240 deg (cis) gas phase

0 1
 C                 -0.80842215   -0.12638039   -0.13715596
 C                  0.63315106   -0.10925000   -0.10421611
 O                 -0.14011068    1.22108731   -0.17738167
 H                 -1.33263219   -0.53246117   -0.97691916
 H                 -1.34963740   -0.35320779    0.75757047
 H                  1.21367065   -0.39323097    0.74857449
 C                  1.39400500   -0.43980800   -1.40168777
 H                  2.34866797    0.04324317   -1.38826476
 H                  1.53095370   -1.49847253   -1.47499856
 Cl                 0.46800418    0.12921472   -2.78600552

 1 2 1.0 3 1.0 4 1.0 5 1.0
 2 3 1.0 6 1.0 7 1.0
 3
 4
 5
 6
 7 8 1.0 9 1.0 10 1.0
 8
 9
 10

--Link1--
%Chk=x7_13_240
# APFD 6-311++g(2d,2p) Polar=OptRot Int=(UltraFine,Acc2E=12) CPHF=RdFreq Geom=Check Guess=Read

Epichlorohydrin 240 deg (cis) gas phase ORD

0 1

633nm 589.5nm 436nm 355nm 

