%Chk=x7_11_cplx_solv
# opt freq=vcd 6-311+g(2d,p) scrf=(solvent=chloroform) geom=connectivity apfd int=(ultrafine,acc2e=12)

Camphor+deuterochloroform in solvent VCD

0 1
 C                  2.50965000    0.55237100   -0.61843100
 C                  1.64805800    0.24296700    0.63907000
 C                  3.26502700   -0.80273200   -0.56981700
 C                  2.72748900   -0.15440500    1.68674300
 C                  3.85179300   -0.81709800    0.85098900
 C                  2.12127800   -1.82295500   -0.57378400
 C                  1.06081300   -1.10388600    0.25151100
 C                  1.67517300    0.75376300   -1.88334200
 C                  3.41682000    1.76869000   -0.46481500
 C                  0.64468600    1.26005400    1.11357200
 O                 -0.02467300   -1.53854000    0.55474100
 H                  3.99865500   -0.94719500   -1.36579600
 H                  2.31483700   -0.81438300    2.45378500
 H                  3.07259300    0.74610400    2.20091400
 H                  4.07624900   -1.83375500    1.18200000
 H                  4.78433100   -0.25242900    0.91016700
 H                  2.37429300   -2.78570800   -0.12213100
 H                  1.72087400   -2.03026100   -1.56950900
 H                  1.15669800    1.71508100   -1.84839300
 H                  2.31927500    0.75937300   -2.76751000
 H                  0.91003700   -0.01090100   -2.03043800
 H                  2.82447200    2.68723100   -0.44123500
 H                  4.09464200    1.83908700   -1.32089000
 H                  4.02729800    1.74962900    0.43819300
 H                  0.06602200    0.86880800    1.95387800
 H                  1.14325600    2.17448300    1.44575500
 H                 -0.06144600    1.52624200    0.32419700
 C                 -2.67830600   -0.07952200    0.07954400
 H(Iso=2)          -1.81190800   -0.57143800    0.51351500
 Cl                -3.96969800   -1.27952500   -0.08557500
 Cl                -2.17625200    0.54499900   -1.51007600
 Cl                -3.16391300    1.24657800    1.15671800

 1 2 1.0 3 1.0 8 1.0 9 1.0
 2 4 1.0 7 1.0 10 1.0
 3 5 1.0 6 1.0 12 1.0
 4 5 1.0 13 1.0 14 1.0
 5 15 1.0 16 1.0
 6 7 1.0 17 1.0 18 1.0
 7 11 2.0
 8 19 1.0 20 1.0 21 1.0
 9 22 1.0 23 1.0 24 1.0
 10 25 1.0 26 1.0 27 1.0
 11
 12
 13
 14
 15
 16
 17
 18
 19
 20
 21
 22
 23
 24
 25
 26
 27
 28 29 1.0 30 1.0 31 1.0 32 1.0
 29
 30
 31
 32

