%Chk=x7_10_1a
# opt freq 6-311+g(2d,p) scrf=(solvent=water) geom=connectivity apfd int=(ultrafine,acc2e=12)

(R)-lactamide Hopmann conformation 1

0 1
 C                 -0.67749300   -0.11564700   -0.40126900
 C                  0.82698400   -0.12009700   -0.11169900
 C                 -1.37121800   -1.05791000    0.56384000
 H                 -0.91058100   -2.04534300    0.51577400
 H                 -1.28524800   -0.67920000    1.58567500
 H                 -2.43045200   -1.13894900    0.31373900
 H                  0.63541900    1.69728900    0.81141400
 H                  2.24326400    1.01453800    0.81752600
 N                  1.28802800    0.99631100    0.50086300
 O                  1.51764400   -1.07520700   -0.41033200
 O                 -1.27416900    1.16877400   -0.26140800
 H                 -0.79180500   -0.48852800   -1.42609300
 H                 -1.09423100    1.67939700   -1.05539800

 1 2 1.0 3 1.0 11 1.0 12 1.0
 2 9 1.5 10 2.0
 3 4 1.0 5 1.0 6 1.0
 4
 5
 6
 7 9 1.0
 8 9 1.0
 9
 10
 11 13 1.0
 12
 13

--link1--
%Chk=x7_10_1a
# apfd spAug-cc-pvTZ Polar=ROA Geom=Check Guess=Read Int=(UltraFine,Acc2E=12) SCRF(Solvent=Water)

(R)-lactamide Hopmann conformation 1. ROA in water (implicit only)

0 1

532nm

