%Chk=x7_10_1ax
# scrf=(solvent=water) geom=connectivity apfd 6-311+G(2d,p) Int=(UltraFine,Acc2E=12) Opt Freq

(R)-lactamide Hopmann conformation 1 + 4 H2O

0 1
 C                 -1.03055205   -0.12826301   -0.03930465
 C                  0.51416186   -0.13782425   -0.47100882
 C                 -1.17155552   -1.02529595    1.20471415
 H                 -0.79968663   -2.00356772    0.98227216
 H                 -0.60927044   -0.60569070    2.01284582
 H                 -2.20276239   -1.09023523    1.48369444
 H                  1.28059810    1.80224750   -0.17143439
 H                  2.46285079    0.65455136   -0.48835762
 N                  1.49952380    0.87223401   -0.34769707
 O                  0.83487590   -1.27042983   -1.00895810
 O                 -1.62423280    1.14777995    0.33780892
 H                 -1.57995450   -0.53400597   -0.86330615
 H                 -1.41192723    1.90627272   -0.16938081
 O                  3.12379101   -1.81231893   -1.47355477
 H                  3.45413706   -2.56457068   -0.97722918
 H                  2.19266319   -1.65555072   -1.31186123
 O                  3.82003162    0.24358275   -0.71733235
 H                  3.68683073   -0.60568345   -1.04169872
 H                  4.34797398    0.25509760    0.08414801
 O                  0.96281329    3.17816154    0.08705805
 H                  0.13725560    3.15992966   -0.28541607
 H                  1.56790002    3.80682823   -0.30754928
 O                 -1.14033483    3.13521067   -0.82824081
 H                 -1.19088024    3.09194234   -1.78692284
 H                 -1.67735128    3.90402647   -0.61967117

 1 2 1.0 3 1.0 11 1.0 12 1.0
 2 9 1.5 10 2.0
 3 4 1.0 5 1.0 6 1.0
 4
 5
 6
 7 9 1.0 20 0.5
 8 9 1.0 17 0.5
 9
 10 16 0.5
 11 13 1.0
 12
 13 23 0.5
 14 15 1.0 16 1.0 18 0.5
 15
 16
 17 18 1.0 19 1.0
 18
 19
 20 21 1.0 22 1.0
 21 23 0.5
 22
 23 24 1.0 25 1.0
 24
 25

--link1--
%Chk=x7_10_1ax
# apfd spAug-cc-pvTZ Polar=ROA Geom=Check Guess=Read Int=(UltraFine,Acc2E=12) SCRF(Solvent=Water)

(R)-lactamide Hopmann conformation 1 + 4 H2O. ROA

0 1

532nm

