%Chk=x7_12_cch
# opt freq 6-311+g(2d,p) geom=connectivity apfd int=(ultrafine,acc2e=12)

Substituted oxirane: CCH3

0 1
 C                 -0.55659095   -0.03139230    0.75775671
 C                 -0.36905977    0.08725690   -0.64908983
 O                  0.84911929    0.34273089    0.24064926
 H                 -0.58490026   -1.01971900    1.17282464
 H                 -1.29973065    0.51000155    1.30876467
 H                 -0.72740153    1.01802281   -1.03822517
 C                 -0.71137521   -0.88464481   -1.80243206
 C                 -0.96524909   -1.62627990   -2.70578921
 H                 -1.19129373   -2.28792194   -3.51316569

 1 2 1.0 3 1.0 4 1.0 5 1.0
 2 3 1.0 6 1.0 7 1.0
 3
 4
 5
 6
 7 8 3.0
 8 9 1.0
 9

--Link1--
%Chk=x7_12_cch
# APFD 6-311++g(2d,2p) Polar=OptRot Int=(UltraFine,Acc2E=12) CPHF=RdFreq Geom=Check Guess=Read

Substituted oxirane: CCH3

0 1

633nm 589nm 578nm 546nm 436nm 365nm 355nm



