%Chk=x7_10_4ax
# scrf=(solvent=water) geom=connectivity apfd 6-311+G(2d,p) Int=(UltraFine,Acc2E=12) Opt Freq

(R)-lactamide Hopmann conformation 4 + 4 H2O

0 1
 C                  0.75331810   -0.35457867   -0.54478918
 C                 -0.65736647   -0.44432730    0.06631889
 C                  1.42385183    0.95729102   -0.09673134
 H                  0.83795104    1.78893568   -0.42866785
 H                  1.49532144    0.97473423    0.97067396
 H                  2.40416775    1.01968151   -0.52088693
 H                 -1.54688411    0.50098218   -1.53114461
 H                 -2.64158367    0.03696907   -0.27249119
 N                 -1.70969558    0.07711167   -0.64065777
 O                 -0.79275684   -1.00663891    1.21925734
 O                  1.53663692   -1.46609603   -0.10202797
 H                  0.68146614   -0.37198281   -1.61218973
 H                  1.59958524   -1.45343171    0.85611440
 O                 -2.98118654   -1.14899558    2.18069032
 H                 -3.27910345   -2.04906820    2.33079312
 H                 -2.09144504   -1.11230158    1.83156010
 O                 -3.92659122   -0.08386094    0.36592854
 H                 -3.68847889   -0.51598758    1.14694357
 H                 -4.54953764   -0.59243525   -0.15845846
 O                  1.68662099   -1.43496309    2.29325436
 H                  2.21536067   -2.17890947    2.59136238
 H                  0.80497039   -1.49832999    2.66812402
 O                 -1.31320692    1.11215221   -2.81478297
 H                 -0.92760058    0.46640330   -3.41142791
 H                 -2.14561540    1.42493832   -3.17662082

 1 2 1.0 3 1.0 11 1.0 12 1.0
 2 9 1.5 10 2.0
 3 4 1.0 5 1.0 6 1.0
 4
 5
 6
 7 9 1.0 23 0.5
 8 9 1.0 17 0.5
 9
 10 16 0.5
 11 13 1.0
 12
 13 20 0.5
 14 15 1.0 16 1.0 18 0.5
 15
 16
 17 18 1.0 19 1.0
 18
 19
 20 21 1.0 22 1.0
 21
 22
 23 24 1.0 25 1.0
 24
 25

--link1--
%Chk=x7_10_4ax
# apfd spAug-cc-pvTZ Polar=ROA Geom=Check Guess=Read Int=(UltraFine,Acc2E=12) SCRF(Solvent=Water)

(R)-lactamide Hopmann conformation 4 + 4 H2O. ROA

0 1

532nm

