%Chk=x7_13_120
# opt freq 6-311+g(2d,p) apfd Int=(UltraFine,Acc2E=12)

Epichlorohydrin 120 deg (gauche I) gas phase

0 1
 C,0,0.415159471,-0.7758974662,0.2521202333
 C,0,-0.7219081757,-0.1162217524,-0.4746016277
 H,0,-0.6205659411,-0.0733373136,-1.5599017309
 O,0,-2.0389290199,-0.4174303516,-0.0128277717
 H,0,-1.3359243338,1.1694836274,1.2371547551
 H,0,1.351869641,-0.2367632422,0.0920699302
 C,0,-1.5404831494,0.9070644377,0.1985552559
 H,0,-2.0112265521,1.6911720605,-0.3945948596
 H,0,0.2041512919,-0.8447325526,1.3205171642
 Cl,0,0.6911243281,-2.4717286969,-0.3421043687

--Link1--
%Chk=x7_13_120
# APFD 6-311++g(2d,2p) Polar=OptRot Int=(UltraFine,Acc2E=12) CPHF=RdFreq Geom=Check Guess=Read

Epichlorohydrin 120 deg (gauche I) gas phase ORD 

0 1

633nm 589.5nm 436nm 355nm 

