%Chk=e3_01_d5h
# B3lyp/6-31G(d) geom=connectivity opt=calcfc freq 

decamethylzincocene (D5h): eta5,eta5

0 1
 C                  0.00000000    1.33470121   -2.61854053
 C                 -1.26937628    0.41244536   -2.61854053
 C                 -0.78451769   -1.07979596   -2.61854053
 C                  0.78451769   -1.07979596   -2.61854053
 C                  1.26937628    0.41244536   -2.61854053
 C                  1.26937628    0.41244536    2.61854053
 C                  0.00000000    1.33470121    2.61854053
 C                 -1.26937628    0.41244536    2.61854053
 C                 -0.78451769   -1.07979596    2.61854053
 C                  0.78451769   -1.07979596    2.61854053
 Zn                -0.00000000    0.00000000   -0.00000000
 C                 -2.69016061    0.87408617    2.24624553
 H                 -3.25126420    1.05639978    3.13887837
 H                 -2.63499492    1.77029384    1.67053773
 H                 -3.17230828    0.11661335    1.67053773
 C                 -1.66261069   -2.28838729    2.24624553
 H                 -1.09120306   -2.98100896    1.67053773
 H                 -2.00939178   -2.76569052    3.13887837
 H                 -2.49790770   -1.95897821    1.67053773
 C                 -0.00000000    2.82860225    2.24624553
 H                 -0.00000000    3.41858149    3.13887837
 H                  0.86939128    3.05307997    1.67053773
 H                 -0.86939128    3.05307997    1.67053773
 C                  2.69016061    0.87408617    2.24624553
 H                  3.25126420    1.05639978    3.13887837
 H                  3.17230828    0.11661335    1.67053773
 H                  2.63499492    1.77029384    1.67053773
 C                  1.66261069   -2.28838729    2.24624553
 H                  2.49790770   -1.95897821    1.67053773
 H                  2.00939178   -2.76569052    3.13887837
 H                  1.09120306   -2.98100896    1.67053773
 C                  2.69016061    0.87408617   -2.24624553
 H                  3.25126420    1.05639978   -3.13887837
 H                  2.63499492    1.77029384   -1.67053773
 H                  3.17230828    0.11661335   -1.67053773
 C                 -0.00000000    2.82860225   -2.24624553
 H                 -0.00000000    3.41858149   -3.13887837
 H                 -0.86939128    3.05307997   -1.67053773
 H                  0.86939128    3.05307997   -1.67053773
 C                 -2.69016061    0.87408617   -2.24624553
 H                 -3.25126420    1.05639978   -3.13887837
 H                 -3.17230828    0.11661335   -1.67053773
 H                 -2.63499492    1.77029384   -1.67053773
 C                 -1.66261069   -2.28838729   -2.24624553
 H                 -2.00939178   -2.76569052   -3.13887837
 H                 -1.09120306   -2.98100896   -1.67053773
 H                 -2.49790770   -1.95897821   -1.67053773
 C                  1.66261069   -2.28838729   -2.24624553
 H                  2.00939178   -2.76569052   -3.13887837
 H                  2.49790770   -1.95897821   -1.67053773
 H                  1.09120306   -2.98100896   -1.67053773

 1 2 1.5 5 1.5 36 1.0 11 0.5
 2 3 1.5 40 1.0 11 0.5
 3 4 1.5 44 1.0 11 0.5
 4 5 1.5 48 1.0 11 0.5
 5 32 1.0 11 0.5
 6 7 1.5 10 1.5 24 1.0 11 0.5
 7 8 1.5 20 1.0 11 0.5
 8 9 1.5 12 1.0 11 0.5
 9 10 1.5 16 1.0 11 0.5
 10 28 1.0 11 0.5
 11
 12 13 1.0 14 1.0 15 1.0
 13
 14
 15
 16 17 1.0 18 1.0 19 1.0
 17
 18
 19
 20 21 1.0 22 1.0 23 1.0
 21
 22
 23
 24 25 1.0 26 1.0 27 1.0
 25
 26
 27
 28 29 1.0 30 1.0 31 1.0
 29
 30
 31
 32 33 1.0 34 1.0 35 1.0
 33
 34
 35
 36 37 1.0 38 1.0 39 1.0
 37
 38
 39
 40 41 1.0 42 1.0 43 1.0
 41
 42
 43
 44 45 1.0 46 1.0 47 1.0
 45
 46
 47
 48 49 1.0 50 1.0 51 1.0
 49
 50
 51

