%chk=e3_04_p.chk
# opt freq apfd/6-311+g(2d,p) geom=connectivity int=(ultrafine,acc2e=12)

Acetonitrile

0 1
 C                 -0.56419300   -1.57635500   -0.76975400
 C                 -1.41331200   -0.42615800   -0.48734700
 H                  0.37114100   -1.49839400   -0.21365400
 H                 -0.33659100   -1.62243300   -1.83571500
 H                 -1.07056000   -2.49769900   -0.47836100
 N                 -2.08377700    0.48119100   -0.26458200

 1 2 1.0 3 1.0 4 1.0 5 1.0
 2 6 3.0
 3
 4
 5
 6

