%Chk=e3_01_d5d
# opt=calcfc freq b3lyp/6-31g(d) geom=connectivity 

decamethylzincocene (D5h): eta5,eta5

0 1
 C                  1.15814851   -0.37630526   -2.67557189
 C                  0.71577514    0.98517997   -2.67557189
 C                 -0.71577514    0.98517997   -2.67557189
 C                 -1.15814851   -0.37630526   -2.67557189
 C                  0.00000000   -1.21774941   -2.67557189
 C                  0.71577514   -0.98517997    2.67557189
 C                  1.15814851    0.37630526    2.67557189
 C                 -0.00000000    1.21774941    2.67557189
 C                 -1.15814851    0.37630526    2.67557189
 C                 -0.71577514   -0.98517997    2.67557189
 Zn                 0.00000000    0.00000000    0.00000000
 C                  0.00000000    2.78167893    2.42222829
 H                  0.00000000    3.31641809    3.34421963
 H                  0.83076300    3.05939102    1.76639028
 H                 -0.83076300    3.05939102    1.76639028
 C                 -2.64553387    0.85958606    2.42222829
 H                 -3.16637365    0.15530125    1.76639028
 H                 -3.15410104    1.02482955    3.34421963
 H                 -2.65293388    1.73550638    1.76639028
 C                  2.64553387    0.85958606    2.42222829
 H                  3.15410104    1.02482955    3.34421963
 H                  3.16637365    0.15530125    1.76639028
 H                  2.65293388    1.73550638    1.76639028
 C                  1.63502985   -2.25042552    2.42222829
 H                  1.94934165   -2.68303860    3.34421963
 H                  1.12616354   -2.96340957    1.76639028
 H                  2.47036631   -1.98678909    1.76639028
 C                 -1.63502985   -2.25042552    2.42222829
 H                 -1.12616354   -2.96340957    1.76639028
 H                 -1.94934165   -2.68303860    3.34421963
 H                 -2.47036631   -1.98678909    1.76639028
 C                 -0.00000000   -2.78167893   -2.42222829
 H                 -0.00000000   -3.31641809   -3.34421963
 H                  0.83076300   -3.05939102   -1.76639028
 H                 -0.83076300   -3.05939102   -1.76639028
 C                  2.64553387   -0.85958606   -2.42222829
 H                  3.15410104   -1.02482955   -3.34421963
 H                  3.16637365   -0.15530125   -1.76639028
 H                  2.65293388   -1.73550638   -1.76639028
 C                  1.63502985    2.25042552   -2.42222829
 H                  1.94934165    2.68303860   -3.34421963
 H                  1.12616354    2.96340957   -1.76639028
 H                  2.47036631    1.98678909   -1.76639028
 C                 -1.63502985    2.25042552   -2.42222829
 H                 -1.94934165    2.68303860   -3.34421963
 H                 -2.47036631    1.98678909   -1.76639028
 H                 -1.12616354    2.96340957   -1.76639028
 C                 -2.64553387   -0.85958606   -2.42222829
 H                 -3.15410104   -1.02482955   -3.34421963
 H                 -2.65293388   -1.73550638   -1.76639028
 H                 -3.16637365   -0.15530125   -1.76639028

 1 2 1.5 5 1.5 36 1.0 11 0.5
 2 3 1.5 40 1.0 11 0.5
 3 4 1.5 44 1.0 11 0.5
 4 5 1.5 48 1.0 11 0.5
 5 32 1.0 11 0.5
 6 7 1.5 10 1.5 24 1.0 11 0.5
 7 8 1.5 20 1.0 11 0.5
 8 9 1.5 12 1.0 11 0.5
 9 10 1.5 16 1.0 11 0.5
 10 28 1.0 11 0.5
 11
 12 13 1.0 14 1.0 15 1.0
 13
 14
 15
 16 17 1.0 18 1.0 19 1.0
 17
 18
 19
 20 21 1.0 22 1.0 23 1.0
 21
 22
 23
 24 25 1.0 26 1.0 27 1.0
 25
 26
 27
 28 29 1.0 30 1.0 31 1.0
 29
 30
 31
 32 33 1.0 34 1.0 35 1.0
 33
 34
 35
 36 37 1.0 38 1.0 39 1.0
 37
 38
 39
 40 41 1.0 42 1.0 43 1.0
 41
 42
 43
 44 45 1.0 46 1.0 47 1.0
 45
 46
 47
 48 49 1.0 50 1.0 51 1.0
 49
 50
 51



