%Chk=e3_02_2
#p OPT APFd 6-311+G(2d,p) Geom=Connectivity int(ultrafine,acc2e=12)

Co(AcAc)3 D3

0 1
 Co                 0.00000000    0.00000000    0.00000000
 O                  0.56846554    1.36346482    1.05325786
 O                  0.89656241   -1.17403801    1.05325786
 O                 -1.46502794   -0.18942682    1.05325786
 O                 -0.56846554    1.36346482   -1.05325786
 O                  1.46502794   -0.18942682   -1.05325786
 O                 -0.89656241   -1.17403801   -1.05325786
 C                  1.75356194    1.89768189    0.98194206
 C                  2.13166944    2.96669783    2.02397834
 H                  2.82234087    3.65920577    1.59003626
 C                  2.52022169    0.56978825   -0.98194206
 C                  2.70555949    1.56205550    0.00000000
 H                  3.63220667    2.09705550    0.00000000
 C                  3.63507041    0.36273097   -2.02397834
 H                  3.45276417    0.99071374   -2.87091517
 H                  2.58436535    2.49482462    2.87091517
 H                  1.25101312    3.48882097    2.33499582
 H                  3.64691415   -0.66100135   -2.33499582
 H                  4.58013559    0.61461601   -1.59003626
 C                 -2.52022169    0.56978825    0.98194206
 C                 -3.63507041    0.36273097    2.02397834
 H                 -4.58013559    0.61461601    1.59003626
 C                 -1.75356194    1.89768189   -0.98194206
 C                 -2.70555949    1.56205550    0.00000000
 H                 -3.63220667    2.09705550    0.00000000
 C                 -2.13166944    2.96669783   -2.02397834
 H                 -2.58436535    2.49482462   -2.87091517
 H                 -3.45276417    0.99071374    2.87091517
 H                 -3.64691415   -0.66100135    2.33499582
 H                 -1.25101312    3.48882097   -2.33499582
 H                 -2.82234087    3.65920577   -1.59003626
 C                 -0.76665975   -2.46747013   -0.98194206
 C                 -1.50340096   -3.32942881   -2.02397834
 H                 -1.75779472   -4.27382178   -1.59003626
 C                  0.76665975   -2.46747013    0.98194206
 C                  0.00000000   -3.12411100    0.00000000
 H                  0.00000000   -4.19411099    0.00000000
 C                  1.50340096   -3.32942881    2.02397834
 H                  0.86839882   -3.48553836    2.87091517
 H                 -0.86839882   -3.48553836   -2.87091517
 H                 -2.39590103   -2.82781963   -2.33499582
 H                  2.39590103   -2.82781963    2.33499582
 H                  1.75779472   -4.27382178    1.59003626

 1 2 1.0 3 1.0 4 1.0 5 1.0 6 1.0 7 1.0
 2 8 1.5
 3 35 1.5
 4 20 1.5
 5 23 1.5
 6 11 1.5
 7 32 1.5
 8 9 1.0 12 1.5
 9 10 1.0 16 1.0 17 1.0
 10
 11 12 1.5 14 1.0
 12 13 1.0
 13
 14 15 1.0 18 1.0 19 1.0
 15
 16
 17
 18
 19
 20 21 1.0 24 1.5
 21 22 1.0 28 1.0 29 1.0
 22
 23 24 1.5 26 1.0
 24 25 1.0
 25
 26 27 1.0 30 1.0 31 1.0
 27
 28
 29
 30
 31
 32 33 1.0 36 1.5
 33 34 1.0 40 1.0 41 1.0
 34
 35 36 1.5 38 1.0
 36 37 1.0
 37
 38 39 1.0 42 1.0 43 1.0
 39
 40
 41
 42
 43

