%chk=e3_06_ts.chk
# opt=qst2 freq apfd/6-311+g(2d,p) geom=connectivity  Int=(UltraFine,Acc2E=12)

Azide -> Imine + N2 TS via QST2 Opt Freq

0 1
 C                 -0.42334000    1.18866000    1.27381000
 C                  0.38045000    0.93363000    0.00000000
 H                  1.25896000    1.57962000    0.00000000
 H                  0.18592000    1.00900000    2.16086000
 H                 -0.77005000    2.22429000    1.29864000
 H                 -1.30316000    0.54120000    1.32266000
 C                 -0.42334000    1.18866000   -1.27381000
 H                  0.18592000    1.00900000   -2.16086000
 H                 -1.30316000    0.54120000   -1.32266000
 H                 -0.77005000    2.22429000   -1.29864000
 N                  0.98333000   -0.43501000    0.00000000
 N                  0.19902000   -1.38008000    0.00000000
 N                 -0.42334000   -2.32696000    0.00000000

 1 2 1.0 4 1.0 5 1.0 6 1.0
 2 3 1.0 7 1.0 11 1.0
 3
 4
 5
 6
 7 8 1.0 9 1.0 10 1.0
 8
 9
 10
 11 12 2.0
 12 13 3.0
 13

Azide -> Imine + N2 TS via QST2 Opt Freq

0 1
 C                  1.35584000   -0.48732000    0.00001000
 C                 -0.00400000    0.16031000    0.00000000
 H                 -1.05858000    1.73591000    0.00005000
 H                  2.13466000    0.27271000    0.00003000
 H                  1.47643000   -1.12878000    0.87851000
 H                  1.47643000   -1.12873000   -0.87856000
 C                 -1.18592000   -0.78172000    0.00000000
 H                 -2.13168000   -0.23825000   -0.00017000
 H                 -1.15618000   -1.43413000   -0.87791000
 H                 -1.15632000   -1.43385000    0.87810000
 N                 -0.08290000    1.42965000   -0.00001000
 N                 -0.23321475    3.84642358   -1.39805649
 N                 -0.25396018    4.82117510   -1.88900221

 1 2 1.0 5 1.0 6 1.0 4 1.0
 2 7 1.0 11 2.0
 3 11 1.0
 4
 5
 6
 7 9 1.0 10 1.0 8 1.0
 8
 9
 10
 11 12 0.5
 12 13 3.0
 13

