%Chk=e3_07_2step+calcfc
# opt=qst2 APFD/6-31g(d,p) geom=connectivity  Int=(UltraFine,Acc2E=12)

Acetaldehyde

0 1
 C                  0.93069900   -0.71873000    0.00000000
 C                  0.00000000    0.46022200    0.00000000
 H                  0.37385500   -1.65455400    0.00000000
 H                  1.58254300   -0.66769100    0.87821500
 H                  1.58254300   -0.66769100   -0.87821500
 O                 -1.20238600    0.38572200    0.00000000
 H                  0.49595600    1.45521000    0.00000000

 1 2 1.0 3 1.0 4 1.0 5 1.0
 2 6 2.0 7 1.0
 3 6 0.5
 4
 5
 6
 7

Vinyl Alcohol

0 1
 C                  1.19894600   -0.20677800   -0.00025200
 C                  0.03866100    0.43985300   -0.00030400
 H                 -1.13327000   -1.07576900   -0.00120500
 H                  1.25701400   -1.28989000    0.00119000
 H                  2.12549800    0.34874200    0.00075400
 O                 -1.20592000   -0.11281300    0.00026700
 H                 -0.02752500    1.52097400    0.00046500

 1 2 2.0 4 1.0 5 1.0 3 0.5
 2 6 1.0 7 1.0
 3 6 1.0
 4
 5
 6
 7

--Link1--
%Chk=e3_07_2step+calcfc
%nosave
# APFD/6-311+g(2d,p) opt=(calcfc,ts) freq guess=read geom=allcheck Int=(UltraFine,Acc2E=12)

