%Chk=e3_06_prod
# opt freq APFD/6-311+g(2d,p) geom=connectivity Int=(UltraFine,Acc2E=12)

Iminie Product Opt Freq

0 1
 C                 -2.62308138    0.03074154    0.04931583
 C                 -1.21070444   -0.34527059   -0.43587099
 H                 -2.78112517    1.07959218   -0.09151918
 H                 -3.35067832   -0.51803699   -0.51134879
 H                 -2.71876750   -0.20807538    1.08792579
 C                 -0.98323956   -1.85483132   -0.23317387
 H                 -0.00191272   -2.11608650   -0.57028419
 H                 -1.07892567   -2.09364824    0.80543609
 H                 -1.71083649   -2.40360985   -0.79383848
 N                 -0.21110865    0.40865880    0.33438788
 H                  0.70683858    0.13116895    0.05088783

 1 2 1.0 3 1.0 4 1.0 5 1.0
 2 6 1.0 10 1.0
 3
 4
 5
 6 7 1.0 8 1.0 9 1.0
 7
 8
 9
 10 11 1.0
 11

