%Chk=e3_06_imed
# opt freq APFD/6-311+g(2d,p) geom=connectivity Int=(UltraFine,Acc2E=12)

Azide Proton Transfer Reaction Intermediate Opt Freq

0 1
 C                 -2.80603475   -0.07309365    0.00324736
 C                 -1.26635781   -0.04174715    0.00675450
 H                 -3.18316827    0.92823741    0.00578123
 H                 -3.15042555   -0.58171130   -0.87288224
 H                 -3.15428598   -0.58758677    0.87440630
 C                 -0.72356751   -1.48291522    0.00310762
 H                 -0.92196701    0.46687050    0.88288409
 H                  0.34620803   -1.46113551    0.00554440
 H                 -1.07181874   -1.99740834    0.87426656
 H                 -1.06795831   -1.99153286   -0.87302198
 N                 -0.78791921    0.66507985   -1.19007134

 1 2 1.0 3 1.0 4 1.0 5 1.0
 2 6 1.0 7 1.0 11 1.0
 3
 4
 5
 6 8 1.0 9 1.0 10 1.0
 7
 8
 9
 10
 11

