%Chk=e3_05_qst3
# opt=(qst3,calcfc) freq APFD/6-311+g(2d,p) geom=connectivity Int=(UltraFine,Acc2E=12)

cis<=>trans 1-fluoropropene HCCC=0 TS Opt Freq
cis

0 1
 C                  1.47112100    0.59642200    0.00000000
 H                  1.67582000   -0.47345000    0.00000000
 C                  0.00000000    0.87318800    0.00000000
 H                  1.94963000    1.03807300    0.87903800
 H                  1.94963000    1.03807300   -0.87903800
 H                 -0.33082800    1.90636700    0.00000000
 C                 -0.96053900   -0.03380100    0.00000000
 H                 -2.02364200    0.16534300    0.00000000
 F                 -0.69823300   -1.36547300    0.00000000

 1 2 1.0 3 1.0 4 1.0 5 1.0
 2
 3 6 1.0 7 2.0
 4
 5
 6
 7 8 1.0 9 1.0
 8
 9

cis<=>trans 1-fluoropropene HCCC=0 TS Opt Freq
trans

0 1
 C                  1.31915700    1.32389500    0.00000000
 H                  2.15503000    0.62165100    0.00000000
 C                  0.00000000    0.61415900    0.00000000
 H                  1.41950700    1.96691000    0.87931500
 H                  1.41950700    1.96691000   -0.87931500
 H                 -0.90765900    1.20999000    0.00000000
 C                 -0.11922000   -0.70010000    0.00000000
 H                  0.69149600   -1.41837800    0.00000000
 F                 -1.33083400   -1.30831200    0.00000000

 1 2 1.0 3 1.0 4 1.0 5 1.0
 2
 3 6 1.0 7 2.0
 4
 5
 6
 7 8 1.0 9 1.0
 8
 9

cis<=>trans 1-fluoropropene HCCC=0 TS Opt Freq
ts guess from hf/6-31g(d)

0 1
 C                  0.00000000    0.00000000    0.00000000
 H                  0.00000000    0.00000000    1.08800000
 C                  1.45886413    0.00000000   -0.56817146
 H                 -0.47653770   -0.92216887   -0.31923721
 H                 -0.64168402    0.82401235   -0.32469210
 H                  1.31944595    0.07513531   -1.66408686
 C                  1.94207870    1.34294152   -0.31621463
 H                  1.50994094    2.34850297   -0.59567714
 F                  3.05174014    1.56643328    0.33278918

 1 2 1.0 3 1.0 4 1.0 5 1.0
 2
 3 6 1.0 7 1.0
 4
 5
 6
 7 8 1.0 9 1.0
 8
 9

