%Chk=tt3_01_cp-
# opt freq APFD/6-311+g(2d,p) geom=connectivity Int=(UltraFine,Acc2E=12)

Cp Opt Freq

-1 1
 C                 -0.92436980    0.71428570    0.00000000
 C                 -1.47143180   -0.05135330   -1.17992100
 H                 -1.26088980    0.24290470   -2.20561300
 C                 -2.21889980   -1.09630330   -0.73586700
 H                 -2.75051480   -1.83970030   -1.32812200
 C                 -1.47151080   -0.05133030    1.17988900
 H                 -1.26102480    0.24287370    2.20560300
 C                 -2.21897980   -1.09629130    0.73590900
 H                 -2.75059680   -1.83959330    1.32831300
 H                 -0.30227575    1.58485965    0.00001462

 1 2 1.0 6 1.0 10 1.0
 2 3 1.0 4 2.0
 3
 4 5 1.0 8 1.0
 5
 6 7 1.0 8 2.0
 7
 8 9 1.0
 9
 10

--Link1--
%Chk=tt3_01_cp-
# pop=savemix APFD/6-311+(2d,p) guess=read geom=allcheck Int=(UltraFine,Acc2E=12)

--Link1--
%Chk=tt3_01_cp-
# pop=orbitals APFD/6-311+(2d,p) guess=read geom=allcheck Int=(UltraFine,Acc2E=12)



