%Chk=tt3_01_fecp+
# opt=calcfc freq APFD/6-311+g(2d,p) Int=(UltraFine,Acc2E=12)

Eta5 FeCp+ Opt Freq

1 1
 C                 -0.76729100   -0.10098700    1.20908100
 C                 -0.76760600    1.11855200    0.46959500
 H                 -0.73170700    2.11453800    0.88767400
 C                 -0.76753900    0.79235300   -0.91866800
 H                 -0.73184600    1.49783600   -1.73662900
 C                 -0.76758300   -1.18096400    0.27755300
 H                 -0.73162700   -2.23249700    0.52464500
 C                 -0.76752600   -0.62900700   -1.03737000
 H                 -0.73179600   -1.18905500   -1.96101000
 H                 -0.73151300   -0.19087700    2.28549400
 Fe                 1.02629800    0.00001400   -0.00005100

--Link1--
%chk=tt3_01_fecp+
# opt=calcfc freq APFD/6-311+g(2d,p) geom=connectivity int=(ultrafine,acc2e=12)

eta5 fecp+ Opt Freq offset from TS found by preceding

1 1
 C                 -0.70740200   -0.07739800    1.24948400
 C                 -0.90446600    0.97483900    0.58734600
 H                 -0.53858400    1.92197400    1.11532000
 C                 -0.60812200    0.93600400   -0.90746400
 H                 -0.98237100    1.70618900   -1.65878400
 C                 -0.72730000   -1.24209400    0.05887700
 H                 -0.78742000   -2.31692500    0.15627400
 C                 -0.89397700   -0.58418800   -0.98861600
 H                 -0.51916500   -1.11399300   -1.93478600
 H                 -0.83486500   -0.19655600    2.32163500
 Fe                 1.02755400   -0.00020300    0.00009900

 1 2 1.5 6 1.5 10 1.0
 2 3 1.0 4 1.5
 3
 4 5 1.0 8 1.5
 5
 6 7 1.0 8 1.5
 7
 8 9 1.0
 9
 10
 11

--Link1--
%Chk=tt3_01_fecp+
# APFD/6-311+G(2d,p) pop=savemix guess=read geom=allcheck Int=(UltraFine,Acc2E=12)

--Link1--
%Chk=tt3_01_fecp+
# APFD/6-311+G(2d,p) pop=orbitals guess=read geom=allcheck Int=(UltraFine,Acc2E=12)

