%Chk=tt3_01_zncp+_eta5
# opt freq APFD/6-311+g(2d,p) geom=connectivity Int=(UltraFine,Acc2E=12)

Eta5 ZnCp+ Opt Freq

1 1
 C                  0.00000000    1.10515794   -0.81076891
 C                  1.05106766    0.34151259   -0.81076891
 H                  2.01778605    0.65561843   -0.96881707
 C                  0.64959554   -0.89409156   -0.81076891
 H                  1.24706036   -1.71643134   -0.96881707
 C                 -1.05106766    0.34151259   -0.81076891
 H                 -2.01778605    0.65561843   -0.96881707
 C                 -0.64959554   -0.89409156   -0.81076891
 H                 -1.24706036   -1.71643134   -0.96881707
 H                  0.00000000    2.12162581   -0.96881707
 Zn                 0.00000000    0.00000000    1.04509367

 1 2 1.0 6 1.0 10 1.0 11 0.5
 2 3 1.0 4 2.0 11 0.5
 3
 4 5 1.0 8 1.0 11 0.5
 5
 6 7 1.0 8 2.0 11 0.5
 7
 8 9 1.0 11 0.5
 9
 10
 11

--Link1--
%Chk=tt3_01_zncp+_eta5
# APFD/6-311+G(2d,p) pop=savemix guess=read geom=allcheck Int=(UltraFine,Acc2E=12)

--Link1--
%Chk=tt3_01_zncp+_eta5
# APFD/6-311+G(2d,p) pop=orbitals guess=read geom=allcheck Int=(UltraFine,Acc2E=12)
