%Chk=x3_03_reactant
# opt freq apfd/6-311+g(2d,p) geom=connectivity int=(ultrafine,acc2e=12)

GeH4 reactant

0 1
 Ge                -0.54666664    0.01333207    0.00017453
 H                 -0.00565983   -1.40519356    0.07431409
 H                 -0.06747177    0.80212334    1.20789163
 H                 -0.04735887    0.68022483   -1.27118136
 H                 -2.06617609   -0.02382634   -0.01032624

 1 2 1.0 3 1.0 4 1.0 5 1.0
 2
 3
 4
 5

