%Chk=x3_06_mo
# opt freq APFD/lanl2dz geom=connectivity Int=(UltraFine,Acc2E=12)

Molybdenum hexacarbonyl

0 1
 Mo                 0.00000000    0.00000000    0.00000000
 C                  0.00000000    0.00000000    2.06000000
 C                  0.00000000    2.06000000    0.00000000
 C                 -2.06000000    0.00000000    0.00000000
 C                  0.00000000    0.00000000   -2.06000000
 C                  0.00000000   -2.06000000    0.00000000
 C                  2.06000000    0.00000000    0.00000000
 O                  3.17540000    0.00000000    0.00000000
 O                  0.00000000    0.00000000    3.17540000
 O                  0.00000000    3.17540000    0.00000000
 O                 -3.17540000    0.00000000    0.00000000
 O                  0.00000000    0.00000000   -3.17540000
 O                  0.00000000   -3.17540000    0.00000000

 1 2 1.0 3 1.0 4 1.0 5 1.0 6 1.0 7 1.0
 2 9 3.0
 3 10 3.0
 4 11 3.0
 5 12 3.0
 6 13 3.0
 7 8 3.0
 8
 9
 10
 11
 12
 13

