%Chk=x3_02_open
# APFD/6-311g(2d,p) geom=connectivity opt  Int=(UltraFine,Acc2E=12)

C60O open isomer at APFD/6-31G(d) geometry

0 1
 C                  2.12720100    2.71856800    0.00000000
 C                  1.38646000    2.99110100    1.24980300
 C                  1.38646000    2.99110100   -1.24980300
 C                  3.01627700    1.62421200    0.00000000
 C                  0.10262600    3.62558200    1.07571300
 C                  0.10262600    3.62558200   -1.07571300
 C                  3.18272800    0.76907800   -1.16721100
 C                  3.18272800    0.76907800    1.16721100
 C                  1.50677100    2.10463600    2.33158100
 C                  1.50677100    2.10463600   -2.33158100
 C                  3.41050700   -0.59689500   -0.72343400
 C                  3.41050700   -0.59689500    0.72343400
 C                  2.43210000    0.99876700    2.31211100
 C                  0.33860300    1.69064400    3.08150100
 C                 -1.04821600    3.02820700    1.55663700
 C                  0.33860300    1.69064400   -3.08150100
 C                  2.43210000    0.99876700   -2.31211100
 C                 -1.04821600    3.02820700   -1.55663700
 O                 -0.01654400    4.49140200    0.00000000
 C                  1.84482300   -0.10803300    3.04779800
 C                  0.53704300    0.31937300    3.51183000
 C                 -0.92254200    2.09520400    2.64029500
 C                 -2.18943500    2.59593600    0.70416100
 C                  0.53704300    0.31937300   -3.51183000
 C                  1.84482300   -0.10803300   -3.04779800
 C                 -2.18943500    2.59593600   -0.70416100
 C                 -0.92254200    2.09520400   -2.64029500
 C                  2.84616200   -1.66536600    1.42374300
 C                  2.84616200   -1.66536600   -1.42374300
 C                 -2.02379500    1.16545700    2.59644600
 C                 -2.79946400    1.46354100    1.40607200
 C                 -2.79946400    1.46354100   -1.40607200
 C                 -2.02379500    1.16545700   -2.59644600
 C                 -0.53328000   -0.57835000    3.49727900
 C                  2.04037000   -1.41531400    2.60771400
 C                  2.24365900   -2.76968600    0.69740600
 C                 -0.53328000   -0.57835000   -3.49727900
 C                  2.24365900   -2.76968600   -0.69740600
 C                  2.04037000   -1.41531400   -2.60771400
 C                 -3.39895300    0.40562300   -0.72068100
 C                 -3.39895300    0.40562300    0.72068100
 C                 -1.84367500   -0.14406800    3.03692500
 C                 -0.33178900   -1.94104000    3.03895900
 C                  1.05646500   -3.19113800    1.42580600
 C                  0.93142600   -2.35370700    2.60545400
 C                 -0.33178900   -1.94104000   -3.03895900
 C                 -1.84367500   -0.14406800   -3.03692500
 C                  1.05646500   -3.19113800   -1.42580600
 C                  0.93142600   -2.35370700   -2.60545400
 C                 -0.08457500   -3.58815800    0.72686400
 C                 -0.08457500   -3.58815800   -0.72686400
 C                 -3.21906200   -0.96648700   -1.17431500
 C                 -3.21906200   -0.96648700    1.17431500
 C                 -1.51945400   -2.35188200    2.30703300
 C                 -2.45320500   -1.23912500    2.30668600
 C                 -1.51945400   -2.35188200   -2.30703300
 C                 -2.45320500   -1.23912500   -2.30668600
 C                 -1.39817000   -3.15933500    1.17560500
 C                 -1.39817000   -3.15933500   -1.17560500
 C                 -3.10095400   -1.81288500    0.00000000
 C                 -2.20872100   -2.88755600    0.00000000

 1 2 1.0 3 1.0 4 1.5
 2 5 1.5 9 1.5
 3 6 1.5 10 1.5
 4 7 1.0 8 1.0
 5 15 2.0 19 1.0
 6 18 2.0 19 1.0
 7 11 1.0 17 1.5
 8 12 1.0 13 1.5
 9 13 1.5 14 1.0
 10 16 1.0 17 1.5
 11 12 1.5 29 1.5
 12 28 1.5
 13 20 1.0
 14 21 1.0 22 1.5
 15 22 1.5 23 1.0
 16 24 1.0 27 1.5
 17 25 1.0
 18 26 1.0 27 1.5
 19
 20 21 1.0 35 1.5
 21 34 1.5
 22 30 1.5
 23 26 1.5 31 1.0
 24 25 1.0 37 1.5
 25 39 1.5
 26 32 1.0
 27 33 1.5
 28 35 1.0 36 1.0
 29 38 1.0 39 1.0
 30 31 1.0 42 1.5
 31 41 1.5
 32 33 1.0 40 1.5
 33 47 1.5
 34 42 1.0 43 1.0
 35 45 1.0
 36 38 1.5 44 1.0
 37 46 1.0 47 1.0
 38 48 1.0
 39 49 1.0
 40 41 1.5 52 1.0
 41 53 1.0
 42 55 1.0
 43 45 1.5 54 1.0
 44 45 1.0 50 1.5
 45
 46 49 1.5 56 1.0
 47 57 1.0
 48 49 1.0 51 1.5
 49
 50 51 1.0 58 1.0
 51 59 1.0
 52 57 1.5 60 1.0
 53 55 1.5 60 1.0
 54 55 1.0 58 1.5
 55
 56 57 1.0 59 1.5
 57
 58 61 1.0
 59 61 1.0
 60 61 1.5
 61

