%Chk=x3_02_epoxide
# APFD/6-311g(2d,p) geom=connectivity opt Int=(UltraFine,Acc2E=12)

C60O epoxide isomer opt at APFD/6-31G(d) geometry

0 1
 C                  0.00000000    0.76901200    3.51607700
 C                 -1.19481100    1.45287800    2.94123900
 C                  1.19481100    1.45287800    2.94123900
 C                  0.00000000   -0.76901200    3.51607700
 O                  0.00000000    0.00000000    4.71272600
 C                 -0.72782800    2.58649000    2.18357200
 C                  0.72782800    2.58649000    2.18357200
 C                  1.19481100   -1.45287800    2.94123900
 C                 -1.19481100   -1.45287800    2.94123900
 C                 -2.29900900    0.73779100    2.50133000
 C                  2.29900900    0.73779100    2.50133000
 C                  0.72782800   -2.58649000    2.18357200
 C                 -0.72782800   -2.58649000    2.18357200
 C                 -2.29900900   -0.73779100    2.50133000
 C                 -3.01751100    1.17642600    1.32123800
 C                 -1.42394100    3.03063700    1.05636500
 C                  3.01751100    1.17642600    1.32123800
 C                  2.29900900   -0.73779100    2.50133000
 C                  1.42394100    3.03063700    1.05636500
 C                 -3.01751100   -1.17642600    1.32123800
 C                 -3.46239300    0.00000000    0.59371000
 C                 -2.59485300    2.30793500    0.61527000
 C                 -0.69712700    3.48434700   -0.11796300
 C                  3.46239300    0.00000000    0.59371000
 C                  3.01751100   -1.17642600    1.32123800
 C                  0.69712700    3.48434700   -0.11796300
 C                  2.59485300    2.30793500    0.61527000
 C                 -1.42394100   -3.03063700    1.05636500
 C                  1.42394100   -3.03063700    1.05636500
 C                 -2.59941200    2.30794900   -0.83764200
 C                 -1.42550400    3.03616100   -1.29142700
 C                  1.42550400    3.03616100   -1.29142700
 C                  2.59941200    2.30794900   -0.83764200
 C                 -3.47124700    0.00000000   -0.80110000
 C                 -2.59485300   -2.30793500    0.61527000
 C                 -0.69712700   -3.48434700   -0.11796300
 C                  3.47124700    0.00000000   -0.80110000
 C                  0.69712700   -3.48434700   -0.11796300
 C                  2.59485300   -2.30793500    0.61527000
 C                  0.72695400    2.60283000   -2.41994100
 C                 -0.72695400    2.60283000   -2.41994100
 C                 -3.02737500    1.17622200   -1.53218700
 C                 -3.02737500   -1.17622200   -1.53218700
 C                 -1.42550400   -3.03616100   -1.29142700
 C                 -2.59941200   -2.30794900   -0.83764200
 C                  3.02737500   -1.17622200   -1.53218700
 C                  3.02737500    1.17622200   -1.53218700
 C                  1.42550400   -3.03616100   -1.29142700
 C                  2.59941200   -2.30794900   -0.83764200
 C                 -0.72695400   -2.60283000   -2.41994100
 C                  0.72695400   -2.60283000   -2.41994100
 C                  1.17556300    1.42535000   -3.14242300
 C                 -1.17556300    1.42535000   -3.14242300
 C                 -2.30376200   -0.72735600   -2.70734900
 C                 -2.30376200    0.72735600   -2.70734900
 C                  2.30376200   -0.72735600   -2.70734900
 C                  2.30376200    0.72735600   -2.70734900
 C                 -1.17556300   -1.42535000   -3.14242300
 C                  1.17556300   -1.42535000   -3.14242300
 C                  0.00000000    0.69766300   -3.59067000
 C                  0.00000000   -0.69766300   -3.59067000

 1 2 1.0 3 1.0 4 1.0 5 1.0
 2 6 1.5 10 1.5
 3 7 1.5 11 1.5
 4 5 1.0 8 1.0 9 1.0
 5
 6 7 1.0 16 1.5
 7 19 1.5
 8 12 1.5 18 1.5
 9 13 1.5 14 1.5
 10 14 1.0 15 1.0
 11 17 1.0 18 1.0
 12 13 1.0 29 1.5
 13 28 1.5
 14 20 1.0
 15 21 1.0 22 1.5
 16 22 1.5 23 1.0
 17 24 1.0 27 1.5
 18 25 1.0
 19 26 1.0 27 1.5
 20 21 1.0 35 1.5
 21 34 1.5
 22 30 1.0
 23 26 1.5 31 1.0
 24 25 1.0 37 1.5
 25 39 1.5
 26 32 1.0
 27 33 1.0
 28 35 1.5 36 1.0
 29 38 1.0 39 1.5
 30 31 1.0 42 1.5
 31 41 1.5
 32 33 1.0 40 1.5
 33 47 1.5
 34 42 1.0 43 1.0
 35 45 1.0
 36 38 1.5 44 1.0
 37 46 1.0 47 1.0
 38 48 1.0
 39 49 1.0
 40 41 1.0 52 1.0
 41 53 1.0
 42 55 1.0
 43 45 1.5 54 1.0
 44 45 1.0 50 1.5
 45
 46 49 1.5 56 1.0
 47 57 1.0
 48 49 1.0 51 1.5
 49
 50 51 1.0 58 1.0
 51 59 1.0
 52 57 1.5 60 1.0
 53 55 1.5 60 1.0
 54 55 1.0 58 1.5
 55
 56 57 1.0 59 1.5
 57
 58 61 1.0
 59 61 1.0
 60 61 1.5
 61

