%Chk=x3_04_prod
# opt freq APFD/6-311+g(2d,p) geom=connectivity Int=(UltraFine,Acc2E=12)

3-FLUOROPROPENE HCCC=0 Opt Freq

0 1
 C                  0.00999837    0.00000000   -0.05377724
 H                  0.00999837    0.00000000    1.03722276
 C                  1.44299837    0.00000000   -0.56077724
 F                 -0.50600163   -0.89100000   -0.41777724
 H                 -0.50600163    0.89100000   -0.41777724
 H                  1.66600163    0.00000000   -1.76022276
 C                  2.46199836    0.00000000    0.31022276
 H                  3.48099836    0.00000000   -0.04977724
 H                  2.26499836    0.00000000    1.37422276

 1 2 1.0 3 1.0 4 1.0 5 1.0
 2
 3 7 2.0 6 1.0
 4
 5
 6
 7 8 1.0 9 1.0
 8
 9

