%Chk=x3_05_end-ts
# opt=(calcfc,ts) freq hf/6-31g(d) geom=connectivity

Transition structure for the identity reaction: 
Me2-2-Propenyl+ + Me4-Allene -> Me4-Allene + Me2-2-Propenyl+
HF Opt Freq to start. C2h Symmetry Forced

1 1
 C                 -0.89967105   -1.14310106    0.00000000
 C                 -2.05548603   -0.44988601    0.00000000
 C                 -3.19764900    0.14989604    0.00000000
 C                  0.89967105    1.14310106    0.00000000
 C                  2.05548603    0.44988601    0.00000000
 C                  3.19764900   -0.14989604    0.00000000
 H                  0.00000000    0.00000000    0.00000000
 C                 -4.44881204   -0.71607692    0.00000000
 H                 -4.22046008   -1.77294592    0.00000000
 H                 -5.04216504   -0.48820997    0.87811884
 H                 -5.04216504   -0.48820997   -0.87811884
 C                  4.44881204    0.71607692    0.00000000
 H                  5.04216504    0.48820997    0.87811884
 H                  5.04216504    0.48820997   -0.87811884
 H                  4.22046008    1.77294592    0.00000000
 C                 -3.41575994    1.64552304    0.00000000
 H                 -3.99121993    1.92261314   -0.87639594
 H                 -3.99121993    1.92261314    0.87639594
 H                 -2.49533692    2.20862401    0.00000000
 C                 -0.45136307   -1.81122996   -1.29934123
 H                  0.63016493   -1.83539000   -1.37073023
 H                 -0.80231011   -2.83733995   -1.32442932
 H                 -0.83941304   -1.29459787   -2.16699819
 C                 -0.45136307   -1.81122996    1.29934123
 H                  0.63016493   -1.83539000    1.37073023
 H                 -0.83941304   -1.29459787    2.16699819
 H                 -0.80231011   -2.83733995    1.32442932
 C                  3.41575994   -1.64552304    0.00000000
 H                  3.99121993   -1.92261314   -0.87639594
 H                  3.99121993   -1.92261314    0.87639594
 H                  2.49533692   -2.20862401    0.00000000
 C                  0.45136307    1.81122996   -1.29934123
 H                 -0.63016493    1.83539000   -1.37073023
 H                  0.80231011    2.83733995   -1.32442932
 H                  0.83941304    1.29459787   -2.16699819
 C                  0.45136307    1.81122996    1.29934123
 H                 -0.63016493    1.83539000    1.37073023
 H                  0.83941304    1.29459787    2.16699819
 H                  0.80231011    2.83733995    1.32442932

 1 2 2.0 20 1.0 24 1.0
 2 3 2.0
 3 8 1.0 16 1.0
 4 5 2.0 32 1.0 36 1.0
 5 6 2.0
 6 12 1.0 28 1.0
 7
 8 9 1.0 10 1.0 11 1.0
 9
 10
 11
 12 13 1.0 14 1.0 15 1.0
 13
 14
 15
 16 17 1.0 18 1.0 19 1.0
 17
 18
 19
 20 21 1.0 22 1.0 23 1.0
 21
 22
 23
 24 25 1.0 26 1.0 27 1.0
 25
 26
 27
 28 29 1.0 30 1.0 31 1.0
 29
 30
 31
 32 33 1.0 34 1.0 35 1.0
 33
 34
 35
 36 37 1.0 38 1.0 39 1.0
 37
 38
 39

--Link1--
%Chk=x3_05_end-ts
# APFD/6-311+G(2d,p) Opt=(nodownhill,RCFC) Freq Geom=(check,modred) Guess=Read Int=(UltraFine,Acc2E=12)

Transition structure for the identity reaction: 
Me2-2-Propenyl+ + Me4-Allene -> Me4-Allene + Me2-2-Propenyl+
Constrained opt with standard model: freeze coordinates related to imag. freq.

1,1

B 1 7 F
B 4 7 F

--Link1--
%Chk=x3_05_end-ts
# APFD/6-311+G(2d,p) Opt=(ts,rcfc) Freq Geom=(check,modred) Guess=Read Int=(UltraFine,Acc2E=12)

Transition structure for the identity reaction: 
Me2-2-Propenyl+ + Me4-Allene -> Me4-Allene + Me2-2-Propenyl+
Full opt: activate all coordinates

1,1

B * * A
B * * A

