%Chk=x3_03_qst2
# opt=qst2 freq apfd/6-311+g(2d,p) geom=connectivity int=(ultrafine,acc2e=12)

GeH4 Reactant

0 1
 Ge                -0.54666664    0.01333207    0.00017453
 H                 -0.00565983   -1.40519356    0.07431409
 H                 -0.06747177    0.80212334    1.20789163
 H                 -0.04735887    0.68022483   -1.27118136
 H                 -2.06617609   -0.02382634   -0.01032624

 1 2 1.0 3 1.0 4 1.0 5 1.0
 2
 3
 4
 5

GeH2 + H2 Products

0 1
 Ge                 0.12378500   -0.00010600    0.05261300
 H                 -0.16120800    1.15001800   -1.00275900
 H                 -0.16503200   -1.14872400   -1.00348800
 H                 -1.75226800    0.00143400    0.55043400
 H                 -1.88259800    0.00066500   -0.22779300

 1 2 1.0 3 1.0
 2
 3
 4 5 1.0
 5

