%Chk=x3_05_me4-allene
# opt freq APFD/6-311+g(2d,p) geom=connectivity Int=(UltraFine,Acc2E=12)

Me4-Allene Opt Freq

0 1
 C                 -0.00000704    0.00000642   -1.30897243
 C                  0.00003850   -0.00004122    0.00000103
 C                  0.00000230   -0.00000082    1.30897112
 C                  0.93037840    0.93102398   -2.10843656
 H                  0.77569660    0.77614598   -3.15581171
 H                  0.71296465    1.94942116   -1.86253878
 H                  1.94893923    0.71433773   -1.86246440
 C                 -0.93040345   -0.93099928   -2.10843707
 H                 -1.57865442   -0.34384882   -2.72479974
 H                 -0.34279384   -1.57904703   -2.72461693
 H                 -1.51616585   -1.51699528   -1.43139880
 C                 -0.93040414    0.93099916    2.10843552
 H                 -0.78219416    0.76968237    3.15577569
 H                 -0.70683784    1.94970794    1.86933539
 H                 -1.94857961    0.72049837    1.85570249
 C                  0.93040406   -0.93099754    2.10843815
 H                  1.61092431   -0.34305631    2.68817168
 H                  0.34548004   -1.54577120    2.76024081
 H                  1.48121226   -1.55106568    1.43240456

 1 2 2.0 4 1.0 8 1.0
 2 3 2.0
 3 12 1.0 16 1.0
 4 5 1.0 6 1.0 7 1.0
 5
 6
 7
 8 9 1.0 10 1.0 11 1.0
 9
 10
 11
 12 13 1.0 14 1.0 15 1.0
 13
 14
 15
 16 17 1.0 18 1.0 19 1.0
 17
 18
 19

