%Chk=x3_06_w
# opt freq APFD/lanl2dz geom=connectivity Int=(UltraFine,Acc2E=12)

Tungsten hexacarbonyl

0 1
 C                  0.00000000    0.00000000    2.07000000
 C                  0.00000000    2.07000000    0.00000000
 C                 -2.07000000    0.00000000    0.00000000
 C                  0.00000000    0.00000000   -2.07000000
 C                  0.00000000   -2.07000000    0.00000000
 C                  2.07000000    0.00000000    0.00000000
 O                  3.18540000    0.00000000    0.00000000
 O                  0.00000000    0.00000000    3.18540000
 O                  0.00000000    3.18540000    0.00000000
 O                 -3.18540000    0.00000000    0.00000000
 O                  0.00000000    0.00000000   -3.18540000
 O                  0.00000000   -3.18540000    0.00000000
 W                 -0.00000000   -0.00000000   -0.00000000

 1 8 3.0 13 1.0
 2 9 3.0 13 1.0
 3 10 3.0 13 1.0
 4 11 3.0 13 1.0
 5 12 3.0 13 1.0
 6 7 3.0 13 1.0
 7
 8
 9
 10
 11
 12
 13

