%Chk=x3_01_propene180
# opt freq APFD/6-311+g(2d,p) geom=connectivity Int=(UltraFine,Acc2E=12)

Propene CCCH=180 Opt Freq

0 1
 C                  0.00000000    0.00000000    0.00000000
 C                  0.00000000    0.00000000    1.34000000
 C                  1.31622595    0.00000000    2.10022974
 H                  0.93425303    0.00000000   -0.53982615
 H                 -0.93589033   -0.00000000   -0.54099011
 H                 -0.93493022    0.00000000    1.88065284
 H                  1.11700529    0.00000000    3.17085205
 H                  1.88836460    0.89079898    1.83676145
 H                  1.88836460   -0.89079898    1.83676145

 1 2 2.0 4 1.0 5 1.0
 2 3 1.0 6 1.0
 3 7 1.0 8 1.0 9 1.0
 4
 5
 6
 7
 8
 9

