# APFD/6-31g(d) geom=connectivity Opt Int=(UltraFine,Acc2E=12)

Hydrogen Fluoride Opt 

0 1
 H                  0.00000000    0.00000000    0.00000000
 F                  0.00000000    0.00000000    0.88000000

 1 2 1.0
 2

--Link1--
# APFD/6-31g(d,p) geom=connectivity Opt Int=(UltraFine,Acc2E=12)

Hydrogen Fluoride Opt 

0 1
 H                  0.00000000    0.00000000    0.00000000
 F                  0.00000000    0.00000000    0.88000000

 1 2 1.0
 2

--Link1--
# APFD/6-31+g(d,p) geom=connectivity Opt Int=(UltraFine,Acc2E=12)

Hydrogen Fluoride Opt 

0 1
 H                  0.00000000    0.00000000    0.00000000
 F                  0.00000000    0.00000000    0.88000000

 1 2 1.0
 2

--Link1--
# APFD/6-31++g(d,p) geom=connectivity Opt Int=(UltraFine,Acc2E=12)

Hydrogen Fluoride Opt 

0 1
 H                  0.00000000    0.00000000    0.00000000
 F                  0.00000000    0.00000000    0.88000000

 1 2 1.0
 2

--Link1--
# APFD/6-311g(d,p) geom=connectivity Opt Int=(UltraFine,Acc2E=12)

Hydrogen Fluoride Opt 

0 1
 H                  0.00000000    0.00000000    0.00000000
 F                  0.00000000    0.00000000    0.88000000

 1 2 1.0
 2

--Link1--
# APFD/6-311g(2d,p) geom=connectivity Opt Int=(UltraFine,Acc2E=12)

Hydrogen Fluoride Opt 

0 1
 H                  0.00000000    0.00000000    0.00000000
 F                  0.00000000    0.00000000    0.88000000

 1 2 1.0
 2

--Link1--
# APFD/6-311g(3df,3pd) geom=connectivity Opt Int=(UltraFine,Acc2E=12)

Hydrogen Fluoride Opt 

0 1
 H                  0.00000000    0.00000000    0.00000000
 F                  0.00000000    0.00000000    0.88000000

 1 2 1.0
 2

--Link1--
# APFD/6-311+g(2d,p) geom=connectivity Opt Int=(UltraFine,Acc2E=12)

Hydrogen Fluoride Opt 

0 1
 H                  0.00000000    0.00000000    0.00000000
 F                  0.00000000    0.00000000    0.88000000

 1 2 1.0
 2

--Link1--
# APFD/6-311++g(2d,p) geom=connectivity Opt Int=(UltraFine,Acc2E=12)

Hydrogen Fluoride Opt 

0 1
 H                  0.00000000    0.00000000    0.00000000
 F                  0.00000000    0.00000000    0.88000000

 1 2 1.0
 2

--Link1--
# APFD/6-311+g(3df,2p) geom=connectivity Opt Int=(UltraFine,Acc2E=12)

Hydrogen Fluoride Opt 

0 1
 H                  0.00000000    0.00000000    0.00000000
 F                  0.00000000    0.00000000    0.88000000

 1 2 1.0
 2

--Link1--
# APFD/6-311+g(3df,2pd) geom=connectivity Opt Int=(UltraFine,Acc2E=12)

Hydrogen Fluoride Opt 

0 1
 H                  0.00000000    0.00000000    0.00000000
 F                  0.00000000    0.00000000    0.88000000

 1 2 1.0
 2

--Link1--
# APFD/6-311+g(3df,3pd) geom=connectivity Opt Int=(UltraFine,Acc2E=12)

Hydrogen Fluoride Opt 

0 1
 H                  0.00000000    0.00000000    0.00000000
 F                  0.00000000    0.00000000    0.88000000

 1 2 1.0
 2

