%Chk=x3_01_valc180
# opt freq APFD/6-311+g(2d,p) geom=connectivity Int=(UltraFine,Acc2E=12)

Vinyl Alcohol CCOH=180 Opt Freq

0 1
 C                  0.00000000    0.00000000    0.00000000
 C                  0.00000000    0.00000000    1.33000000
 O                  1.14625101    0.00000000    1.98460571
 H                  0.97171833    0.00000000    2.94690626
 H                 -0.85788304    0.00000000    1.82410190
 H                 -0.86078178   -0.00000000   -0.48700690
 H                  0.86033566    0.00000000   -0.48576388

 1 2 2.0 6 1.0 7 1.0
 2 3 1.5 5 1.0
 3 4 1.0
 4
 5
 6
 7

