%Chk=x3_05_me4-allyl+
# opt freq APFD/6-31g(d,p) geom=connectivity Int=(UltraFine,Acc2E=12)

Me4-Allyl+ Opt Freq
Added H to C2 (central) in optimized Me4-Allene

1 1
 C                  1.36038901   -0.03221870   -0.01523844
 C                 -0.01130607    0.00391838   -0.02189741
 C                 -1.34029706    0.04028722   -0.02855620
 C                  2.14592401    1.28383271   -0.04898933
 H                  3.07198304    1.14815619   -0.56065830
 H                  1.57188200    2.03186508   -0.54375183
 H                  2.33276544    1.59626731    0.96124279
 C                  2.08574151   -1.39353261    0.02863835
 H                  2.24438673   -1.73583636   -0.97250045
 H                  3.02733942   -1.29895810    0.53150801
 H                  1.47898289   -2.10663749    0.55336964
 C                 -2.09033770    1.34708869   -0.39060257
 H                 -3.04976863    1.10075499   -0.80657601
 H                 -2.21943189    1.94272516    0.49253098
 H                 -1.52048396    1.90973896   -1.12577503
 C                 -2.12995217   -1.23609879    0.34687350
 H                 -3.08131071   -0.95243187    0.76413405
 H                 -2.26984634   -1.85797563   -0.52401449
 H                 -1.57256742   -1.79532847    1.08066118
 H                 -0.03410043   -1.05354696    0.11886905

 1 2 2.0 4 1.0 8 1.0
 2 3 2.0 20 1.0
 3 12 1.0 16 1.0
 4 5 1.0 6 1.0 7 1.0
 5
 6
 7
 8 9 1.0 10 1.0 11 1.0
 9
 10
 11
 12 13 1.0 14 1.0 15 1.0
 13
 14
 15
 16 17 1.0 18 1.0 19 1.0
 17
 18
 19
 20

--Link1--
%Chk=x3_05_me4-allyl+
# opt=readfc freq APFD/6-311+g(2d,p) geom=allcheck guess=read Int=(UltraFine,Acc2E=12)

