%Chk=x3_07_ax
# opt freq APFD/6-311+g(2d,p) geom=connectivity Int=(UltraFine,Acc2E=12)

HCo(CO)4 H in axial position (C3v symmetry) Opt Freq

0 1
 Co                 0.00000000    0.00000000    0.41051435
 C                  0.00000000    1.92999964    0.41051454
 C                 -1.67142872   -0.96499982    0.41051454
 C                 -0.00000000    0.00000000   -1.51948565
 O                  0.00000000    3.04539964    0.41051475
 O                 -0.00000000    0.00000000   -2.63488565
 O                 -2.63739345   -1.52269982    0.41051475
 C                  1.67142872   -0.96499982    0.41051454
 O                  2.63739345   -1.52269982    0.41051475
 H                 -0.00000000    0.00000000    1.87051435

 1 2 1.0 3 1.0 4 1.0 8 1.0 10 1.0
 2 5 3.0
 3 7 3.0
 4 6 3.0
 5
 6
 7
 8 9 3.0
 9
 10

