%Chk=x3_01_vamine_planar
# opt freq APFD/6-311+g(2d,p) geom=connectivity Int=(UltraFine,Acc2E=12)

Vinyl Amine (Planar) Opt Freq

0 1
 C                  0.00000000    0.00000000    0.00000000
 C                  0.00000000    0.00000000    1.31000000
 H                  0.91716901    0.00000000   -0.55109074
 H                 -0.91688942   -0.00000000   -0.57071340
 H                  0.93234704    0.00000000    1.87464944
 N                 -1.13548935    0.00000000    2.12894074
 H                 -2.06425703    0.00000000    1.72702708
 H                 -1.05264951    0.00000000    3.13654114

 1 2 2.0 3 1.0 4 1.0
 2 5 1.0 6 1.0
 3
 4
 5
 6 7 1.0 8 1.0
 7
 8

