%Chk=x3_05_me2-2-propenyl+
# opt freq APFD/6-311+g(2d,p) geom=connectivity Int=(UltraFine,Acc2E=12)

Me2-2-propenyl Opt Freq
Added H to C1 (terminal) in optimized Me4-Allene

1 1
 C                  1.19780612    0.34608805   -0.83909321
 C                 -0.02623584    0.14350003   -0.29703065
 C                 -1.25320543   -0.05898151    0.24497167
 C                  2.00274842    1.30668788    0.05594539
 H                  2.97020157    1.46668070   -0.37213121
 H                  1.48694292    2.24116890    0.13083435
 H                  2.11037617    0.87962114    1.03102215
 C                  1.94049535   -0.99869876   -0.94712181
 H                  2.90777653   -0.83847179   -1.37564213
 H                  2.04865481   -1.42574112    0.02799420
 H                  1.38113978   -1.66623107   -1.56875930
 C                 -2.51767964    0.31915612   -0.54848585
 H                 -3.32096970   -0.33052963   -0.27004626
 H                 -2.78613979    1.33182973   -0.33059533
 H                 -2.32451372    0.21880929   -1.59615222
 C                 -1.38125841   -0.66703456    1.65399571
 H                 -1.38583109    0.11722615    2.38176157
 H                 -2.29366257   -1.22165377    1.72170397
 H                 -0.55315304   -1.31909126    1.83751959
 H                  1.08986795    0.77320962   -1.81421376

 1 2 2.0 4 1.0 8 1.0 20 1.0
 2 3 2.0
 3 12 1.0 16 1.0
 4 5 1.0 6 1.0 7 1.0
 5
 6
 7
 8 9 1.0 10 1.0 11 1.0
 9
 10
 11
 12 13 1.0 14 1.0 15 1.0
 13
 14
 15
 16 17 1.0 18 1.0 19 1.0
 17
 18
 19
 20

