%Chk=x3_07_eq_2
# opt freq APFD/6-311+g(2d,p) geom=connectivity int=(ultrafine,acc2e=12)

Opt starting from displacement of imaginary frequency

0 1
 Co                -0.01000000    0.00000000    0.17361300
 C                  0.10000000    1.67205600    0.70606500
 C                 -1.53598200    0.00000000   -0.82028500
 C                  0.10000000   -1.67205600    0.70606500
 C                  1.47598200    0.00000000   -0.80028500
 O                  0.01000000    2.73665900    1.10278500
 O                 -2.48169700    0.00000000   -1.44173600
 O                  0.01000000   -2.73665900    1.10278500
 O                  2.44169700    0.00000000   -1.40173600
 H                 -0.99000000    0.00000000    1.66628600

 1 2 1.0 3 1.0 4 1.0 5 1.0 10 1.0
 2 6 3.0
 3 7 3.0
 4 8 3.0
 5 9 3.0
 6
 7
 8
 9
 10

