%Chk=x3_04_qst3
# opt=qst3 freq APFD/6-311+g(2d,p) geom=connectivity Int=(UltraFine,Acc2E=12)

cis 1-FLUOROPROPENE HCCC=0 TS Search

0 1
 C                  0.00000000    0.00000000    0.00000000
 H                  1.63060625    0.00000000   -1.56945986
 C                  1.43307169    0.00000000   -0.50666115
 H                 -0.51539360    0.89125038   -0.36401400
 H                  0.00000000    0.00000000    1.09100000
 H                  3.47191075    0.00000000    0.00345240
 C                  2.45172704    0.00000000    0.36393708
 H                 -0.51539360   -0.89125038   -0.36401400
 F                  2.20960486    0.00000000    1.67171262

 1 3 1.0 5 1.0 8 1.0 4 1.0
 2 3 1.0
 3 7 2.0
 4
 5 7 1.0
 6 7 1.0
 7 9 1.0
 8
 9

3-FLUOROPROPENE HCCC=0 TS Search

0 1
 C                  2.46199836    0.00000000    0.31022276
 H                  1.66600163    0.00000000   -1.76022276
 C                  1.44299837    0.00000000   -0.56077724
 H                  2.26499836    0.00000000    1.37422276
 H                  0.00999837    0.00000000    1.03722276
 H                 -0.50600163    0.89100000   -0.41777724
 C                  0.00999837    0.00000000   -0.05377724
 H                  3.48099836    0.00000000   -0.04977724
 F                 -0.50600163   -0.89100000   -0.41777724

 1 3 2.0 8 1.0 4 1.0 5 1.0
 2 3 1.0
 3 7 1.0
 4
 5 7 1.0
 6 7 1.0
 7 9 1.0
 8
 9

TS guess for 1,3 hydrogen shift:
cis 1-FLUOROPROPENE -> 3-FLUOROPROPENE

0 1
 C                  1.41291500   -0.49711700    0.04130600
 H                  1.00943300    1.55457900   -0.80374300
 C                  0.68056700    0.68165900   -0.24593000
 H                  2.05280800   -1.00717800   -0.68402700
 H                  0.19404100   -0.72194200    0.80567000
 H                 -1.21208200    1.24190100    0.75943100
 C                 -0.56584300    0.46218100    0.35867300
 H                  1.76653100   -0.62030800    1.06198900
 F                 -1.44184100   -0.48082100   -0.22929000

 1 3 1.5 4 1.0 8 1.0 5 1.0
 2 3 1.0
 3 7 1.5
 4
 5 7 1.0
 6 7 1.0
 7 9 1.0
 8
 9

