%chk=e9_06_ts
# opt=(nodownhill,calcfc) freq uapfd/6-311+g(2d,p) geom=(connectivity,modred) int=(ultrafine,acc2e=12)

ethene+methyl radical TS

0 2
 C                 -0.07348622    0.07638951    0.56273441
 H                  0.35001350    0.88421590    1.12216673
 H                 -0.57168849   -0.72280374    1.07065630
 C                  0.02112771    0.06545528   -0.78911457
 H                 -0.45568245   -0.81217313   -1.17293804
 H                 -0.45860312    0.93506830   -1.18727475
 C                  2.24745724    0.06412163   -1.40519496
 H                  2.45814278   -0.81391861   -1.97926546
 H                  2.86025039    0.07234294   -0.52808780
 H                  2.45522211    0.93332282   -1.99360218

 1 2 1.0 3 1.0 4 2.0
 2
 3
 4 5 1.0 6 1.0 7 0.5
 5
 6
 7 8 1.0 9 1.0 10 1.0
 8
 9
 10

B 4 7 F

--link1--
%chk=e9_06_ts
# apfd/6-311+g(2d,p) opt=(rcfc,ts) freq geom=(check,modred) guess=read Int=(Ultrafine,Acc2E=12)

ethene+methyl radical TS

0 2

B * * A

