%Chk=e9_08_bicyclic
# opt 6-311g(2d,p) geom=connectivity rapfd Int=(Ultrafine,Acc2E=12)

bicyclic RAPFD singlet

0 1
 N                  0.00000000    0.00000000    1.81546409
 C                  0.00000000   -0.67450983    0.65650379
 C                  0.00000000   -1.17974377   -0.63163309
 C                  0.00000000    0.00000000   -1.42254638
 C                 -0.00000000    1.17974377   -0.63163309
 C                 -0.00000000    0.67450983    0.65650379
 H                  0.00000000   -2.20412409   -0.97147078
 H                  0.00000000    0.00000000   -2.51103535
 H                 -0.00000000    2.20412409   -0.97147078

 1 2 1.5 6 1.5
 2 3 2.0 6 2.0
 3 4 1.5 7 1.0
 4 5 1.5 8 1.0
 5 6 2.0 9 1.0
 6
 7
 8
 9

