%Chk=e9_08_scan_u_triplet
# Opt=ModRedundant uAPFd/6-311G(2d,p) Geom=Connectivity Int=(Ultrafine,Acc2E=12)

2,6-pyridyne Triplet uAPFd scan from monocyclic to bicyclic structure

0 3
 N                  0.00000000    0.00000000    1.38853500
 C                  0.00000000   -1.17500000    0.78923500
 C                  0.00000000   -1.21364800   -0.61216500
 C                  0.00000000   -0.00000000   -1.21146500
 C                  0.00000000    1.21364800   -0.61216500
 C                  0.00000000    1.17500000    0.78923500
 H                  0.00000000   -2.14029518   -1.14716500
 H                  0.00000000    0.00000000   -2.28146500
 H                  0.00000000    2.14029518   -1.14716500

 1 2 1.5 6 1.5
 2 3 1.5
 3 4 1.5 7 1.0
 4 5 1.5 8 1.0
 5 6 1.5 9 1.0
 6
 7
 8
 9

B 2 6 S 20 -0.05

