%Chk=e9_06_propylrad_w1bd
# W1BD geom=connectivity

propyl radical (1-dehydropropane radical)

0 2
 C                  1.30244400   -0.29412700   -0.02669900
 H                  2.26626100    0.13813300   -0.26333900
 H                  1.27711800   -1.33298400    0.27902600
 C                  0.08164700    0.55139700    0.04485100
 H                  0.08728200    1.13295200    0.98258900
 C                 -1.22677500   -0.24146300   -0.03343400
 H                 -1.28639000   -0.97712900    0.77305900
 H                 -2.09431000    0.41683600    0.05089300
 H                 -1.30228400   -0.77999600   -0.98101800
 H                  0.10842300    1.30734000   -0.74952200

 1 2 1.0 3 1.0 4 1.0
 2
 3
 4 5 1.0 6 1.0 10 1.0
 5
 6 7 1.0 8 1.0 9 1.0
 7
 8
 9
 10

