%Chk=e9_08_sgmin
# UAPFD/6-311g(2d,p) geom=connectivity guess=mix opt 

monocyclic

0 1
 N                  0.00000000    0.00000000    1.38853500
 C                  0.00000000   -1.17500000    0.78923500
 C                  0.00000000   -1.21364800   -0.61216500
 C                  0.00000000    0.00000000   -1.21146500
 C                  0.00000000    1.21364800   -0.61216500
 C                  0.00000000    1.17500000    0.78923500
 H                  0.00000000   -2.14029518   -1.14716500
 H                  0.00000000    0.00000000   -2.28146500
 H                  0.00000000    2.14029518   -1.14716500

 1 2 1.5 6 1.5
 2 3 1.5
 3 4 1.5 7 1.0
 4 5 1.5 8 1.0
 5 6 1.5 9 1.0
 6
 7
 8
 9

