# uff symm=com iop(2/33=2)

Fragment 1 from phenol dimer at counterpoise APFD/6-31G(d)

0 1 
 O(Fragment=1)     -1.36101598    1.88947239    0.49365134
 H(Fragment=1)     -0.49158989    1.92315502    0.05409089
 C(Fragment=1)     -2.01545981    0.75963226    0.13208532
 C(Fragment=1)     -1.48634458   -0.18404888   -0.75804687
 C(Fragment=1)     -3.27884870    0.54470304    0.69429560
 C(Fragment=1)     -2.21924720   -1.32624785   -1.07341296
 H(Fragment=1)     -0.50273677   -0.02720334   -1.19309585
 C(Fragment=1)     -3.99957227   -0.59863305    0.36911814
 H(Fragment=1)     -3.67328286    1.28743964    1.38239064
 C(Fragment=1)     -3.47720769   -1.54361401   -0.51582932
 H(Fragment=1)     -1.79564624   -2.05277971   -1.76359991
 H(Fragment=1)     -4.98073634   -0.75342134    0.81289066
 H(Fragment=1)     -4.04391577   -2.43655980   -0.76617698

--link1--
# uff symm=com iop(2/33=2)

Fragment 2 from phenol dimer at counterpoise APFD/6-31G(d)

0 1
 O(Fragment=2)      1.29237539    1.89617530   -0.48462017
 H(Fragment=2)      1.67087864    2.32121136   -1.26627076
 C(Fragment=2)      2.03103822    0.78587939   -0.15609957
 C(Fragment=2)      3.13835909    0.37998555   -0.90121200
 C(Fragment=2)      1.61870842    0.06009294    0.96102059
 C(Fragment=2)      3.83846214   -0.76291098   -0.51852556
 H(Fragment=2)      3.45242121    0.95140686   -1.77394986
 C(Fragment=2)      2.32587800   -1.07987826    1.32798386
 H(Fragment=2)      0.75015097    0.39158360    1.52232293
 C(Fragment=2)      3.43696254   -1.49767918    0.59441354
 H(Fragment=2)      4.70195914   -1.07680103   -1.09983987
 H(Fragment=2)      2.00131415   -1.64744509    2.19647130
 H(Fragment=2)      3.98393955   -2.38945357    0.88777292

