# uff symm=com iop(2/33=2)

Fragment 1 from phenol dimer at APFD/3-21G

0 1
 C                  1.94300743    0.08072876    0.68586588
 O                  1.01097394    0.15656584    1.69697031
 H                  0.27961793    0.80588830    1.45164922
 C                  1.79272405    0.72978495   -0.54738466
 C                  2.77204866    0.60252038   -1.52990446
 C                  3.91069923   -0.17080937   -1.30257857
 C                  4.05792625   -0.81966571   -0.07323015
 C                  3.08481359   -0.69603803    0.91229881
 H                  0.90227701    1.32005321   -0.72778067
 H                  2.64083644    1.10922451   -2.48145985
 H                  4.67131005   -0.26838058   -2.06974631
 H                  4.93858817   -1.42509061    0.11862888
 H                  3.18322313   -1.18989858    1.87189218

--link1--
# uff symm=com iop(2/33=2)

Fragment 2 from phenol dimer at APFD/3-21G

0 1
 O                 -1.03088161    1.53041690    0.76582887
 C                 -1.99561612    0.62712006    0.29291078
 H                 -1.33223113    2.46832648    0.70423334
 C                 -1.70956195   -0.72759772    0.45232831
 C                 -2.62100605   -1.67115041   -0.00891726
 C                 -3.81153249   -1.27002942   -0.62191954
 C                 -4.08531531    0.08871273   -0.77108947
 C                 -3.17627256    1.04465260   -0.31505521
 H                 -0.78174022   -1.00390019    0.93901922
 H                 -2.39898610   -2.72603165    0.11292053
 H                 -4.51865197   -2.01061796   -0.97900977
 H                 -5.00625978    0.41239330   -1.24472239
 H                 -3.39021075    2.10279911   -0.43796448

