%Chk=e9_06_ethene
# opt freq rAPFd/6-311+g(2d,p) geom=connectivity Int=(Ultrafine,Acc2E=12)

ethene

0 1
 C                  0.00000000   -0.67760000    0.00000000
 H                  0.92664718   -1.21260000    0.00000000
 H                 -0.92664718   -1.21260000    0.00000000
 C                 -0.00000000    0.67760000    0.00000000
 H                 -0.92664718    1.21260000    0.00000000
 H                  0.92664718    1.21260000   -0.00000000

 1 2 1.0 3 1.0 4 2.0
 2
 3
 4 5 1.0 6 1.0
 5
 6

