%Chk=e9_07_closed_shell
# opt freq rAPFd/6-311+g(2d,p) geom=connectivity Int=(Ultrafine,Acc2E=12)

model for ferredoxin dianion: [Fe2S2(SCH3)4]2-

-2 1
 Fe    -1.42690200    0.00000000    0.00000000
 Fe     1.42690200    0.00000000    0.00000000
 S      0.00000000    0.00000000   -1.75214400
 S      0.00000000    0.00000000    1.75214400
 S      2.88857800    1.85063100    0.15119100
 S      2.88857800   -1.85063100   -0.15119100
 S     -2.88857800    1.85063100   -0.15119100
 S     -2.88857800   -1.85063100    0.15119100
 C     -3.84667100    1.65634800    1.41224900
 H     -4.65425700    2.39949900    1.43740100
 H     -4.28075600    0.65338300    1.47623100
 H     -3.20223500    1.81213400    2.28400700
 C     -3.84667100   -1.65634800   -1.41224900
 H     -3.20223500   -1.81213400   -2.28400700
 H     -4.65425700   -2.39949900   -1.43740100
 H     -4.28075600   -0.65338300   -1.47623100
 C      3.84667100   -1.65634800    1.41224900
 H      3.20223500   -1.81213400    2.28400700
 H      4.65425700   -2.39949900    1.43740100
 H      4.28075600   -0.65338300    1.47623100
 C      3.84667100    1.65634800   -1.41224900
 H      4.65425700    2.39949900   -1.43740100
 H      4.28075600    0.65338300   -1.47623100
 H      3.20223500    1.81213400   -2.28400700

 1 3 1.0 4 1.0 8 0.5 7 0.5
 2 3 1.0 4 1.0 5 0.5 6 0.5
 3
 4
 5 21 1.0
 6 17 1.0
 7 9 1.0
 8 13 1.0
 9 10 1.0 11 1.0 12 1.0
 10
 11
 12
 13 14 1.0 15 1.0 16 1.0
 14
 15
 16
 17 18 1.0 19 1.0 20 1.0
 18
 19
 20
 21 22 1.0 23 1.0 24 1.0
 22
 23
 24

--link1--
%Chk=e9_07_closed_shell
# stable rAPFd/6-311+g(2d,p) guess=read geom=checkpoint Int=(Ultrafine,Acc2E=12)

model for ferredoxin dianion: [Fe2S2(SCH3)4]2-

-2 1

