%Chk=e9_02_cr
# opt freq geom=connectivity def2tzvpp apfd nmr Int=(Ultrafine,Acc2E=12)

CrO4(2-)

-2 1
 Cr                 0.00000000    0.00000000    0.00000000
 O                  0.00000000    1.72032600    0.50000000
 O                  1.72032600    0.00000000   -0.50000000
 O                  0.00000000   -1.72032600    0.50000000
 O                 -1.72032600    0.00000000   -0.50000000

 1 2 1.0 3 1.0 4 1.0 5 1.0
 2
 3
 4
 5

