%chk=e9_03_apf_scan
# opt=modredundant 6-311+g(2d,p) geom=connectivity apf int=(ultrafine,acc2e=12)

methane dimer D3D: C...C distance scan

0 1
 C      0.00000000    0.00000000    1.30000000
 C      0.00000000    0.00000000   -1.30000000
 H      0.00000000    1.02689800    0.93601500
 H      0.88931976   -0.51344900    0.93601500
 H     -0.88931976   -0.51344900    0.93601500
 H      0.00000000   -1.02689800   -0.93601500
 H     -0.88931976    0.51344900   -0.93601500
 H      0.88931976    0.51344900   -0.93601500
 H      0.00000000    0.00000000    2.38946100
 H      0.00000000    0.00000000   -2.38946100

 1 3 1.0 4 1.0 5 1.0 9 1.0 2 1.0
 2 6 1.0 7 1.0 8 1.0 10 1.0
 3
 4
 5
 6
 7
 8
 9
 10

B 1 2 S 17 0.200000

--link1--
%chk=e9_03_apf_opt
# opt 6-311+g(2d,p) geom=connectivity apf int=(ultrafine,acc2e=12)

methane dimer D3D: minimum

0 1
 C      0.00000000    0.00000000    1.80000000
 C      0.00000000    0.00000000   -1.80000000
 H      0.00000000    1.02689800    1.43601500
 H      0.88931976   -0.51344900    1.43601500
 H     -0.88931976   -0.51344900    1.43601500
 H      0.00000000   -1.02689800   -1.43601500
 H     -0.88931976    0.51344900   -1.43601500
 H      0.88931976    0.51344900   -1.43601500
 H      0.00000000    0.00000000    2.88946100
 H      0.00000000    0.00000000   -2.88946100

 1 3 1.0 4 1.0 5 1.0 9 1.0 2 0.5
 2 6 1.0 7 1.0 8 1.0 10 1.0
 3
 4
 5
 6
 7
 8
 9
 10

--link1--
%chk=e9_03_monomer_apf
# opt apf/6-311+g(2d,p) geom=connectivity int=(ultrafine,acc2e=12)

Methane monomer opt APF

0 1
 C                 -0.44725642    0.11773940   -0.01171182
 H                 -0.09060200   -0.89107060   -0.01171182
 H                 -0.09058358    0.62213759    0.86193968
 H                 -0.09058358    0.62213759   -0.88536333
 H                 -1.51725642    0.11775259   -0.01171182

 1 2 1.0 3 1.0 4 1.0 5 1.0
 2
 3
 4
 5

