%Chk=e9_06_methylrad
# opt freq uAPFd/6-311+G(2d,p) geom=connectivity Int=(Ultrafine,Acc2E=12)

methyl radical

0 2
 C                  0.00000000    0.00000000    0.00000000
 H                  0.00000000    1.07963600    0.00000000
 H                 -0.93499220   -0.53981800    0.00000000
 H                  0.93499220   -0.53981800    0.00000000

 1 2 1.0 3 1.0 4 1.0
 2
 3
 4

