%chk=x9_02_re.chk
# opt freq apfd geom=connectivity def2tzvpp nmr Int=(Ultrafine,Acc2E=12)

ReO4(-)

-1 1
 O                  0.00000000    0.00000000    1.75048015
 O                  0.00000000    1.66968776   -0.56981061
 O                  1.44599202   -0.83484388   -0.56981061
 O                 -1.44599202   -0.83484388   -0.56981061
 Re                 0.00000000    0.00000000    0.02048015

 1 5 1.0
 2 5 1.0
 3 5 1.0
 4 5 1.0
 5

