%Chk=x9_06_propylradCN_W1BD
# W1BD geom=connectivity

cyanopropyl radical CH3CH2CHCN

0 2
 C                  0.20227000    0.53814300   -0.26557100
 H                  0.04678200    1.60521800   -0.38327700
 C                 -0.95467600   -0.39401500   -0.43427300
 H                 -1.24109000   -0.40356700   -1.49510900
 C                 -2.17594600    0.01764200    0.40245400
 H                 -2.50471400    1.02855700    0.15026800
 H                 -3.00953200   -0.66242200    0.21719100
 H                 -1.94684800   -0.00641700    1.46934000
 H                 -0.64804000   -1.41207800   -0.18790600
 C                  1.48621900    0.11242700    0.02248400
 N                  2.56517800   -0.25635300    0.26841800

 1 2 1.0 3 1.0 10 2.0
 2
 3 4 1.0 5 1.0 9 1.0
 4
 5 6 1.0 7 1.0 8 1.0
 6
 7
 8
 9
 10 11 3.0
 11

