%Chk=x9_01_w
# opt=tight freq apfd/lanl2dz geom=connectivity int=(ultrafine,acc2e=12) 

WF6 Opt Freq

0 1
 W                 -0.00000000    0.00000000    0.00000000
 F                  0.00000000    0.00000000    1.88000000
 F                  0.00000000    1.88000000    0.00000000
 F                  1.88000000    0.00000000   -0.00000000
 F                  0.00000000   -1.88000000   -0.00000000
 F                 -0.00000000    0.00000000   -1.88000000
 F                 -1.88000000    0.00000000    0.00000000

 1 2 1.0 3 1.0 4 1.0 5 1.0 6 1.0 7 1.0
 2
 3
 4
 5
 6
 7

--link1--
%Chk=x9_01_w
# opt=tight freq apfd/def2qzvpp geom=connectivity int=(ultrafine,acc2e=12) 

WF6 Opt Freq

0 1
 W                 -0.00000000    0.00000000    0.00000000
 F                  0.00000000    0.00000000    1.88000000
 F                  0.00000000    1.88000000    0.00000000
 F                  1.88000000    0.00000000   -0.00000000
 F                  0.00000000   -1.88000000   -0.00000000
 F                 -0.00000000    0.00000000   -1.88000000
 F                 -1.88000000    0.00000000    0.00000000

 1 2 1.0 3 1.0 4 1.0 5 1.0 6 1.0 7 1.0
 2
 3
 4
 5
 6
 7

