%chk=x9_04_apf_noCC
# OPT Freq APF 6-311+G(2d,p) Int=(Ultrafine,Acc2E=12)

phenol dimer

 0,1
  C                                                 2.302429267232      0.658980035291      0.190958143819
  O                                                 1.474940223868      1.679585364124      0.521295980692
  H                                                 0.593491148657      1.533913327186      0.145741464891
  C                                                 1.883522947018     -0.435330202216     -0.563067839848
  C                                                 2.780997657227     -1.449906791440     -0.866636453940
  C                                                 4.095445737135     -1.387980567322     -0.426353415643
  C                                                 4.505725228291     -0.293679062955      0.326503226121
  C                                                 3.620279213432      0.725649983439      0.636283137994
  H                                                 0.855359204752     -0.489900344791     -0.907430547673
  H                                                 2.443726526687     -2.297765174942     -1.453843502787
  H                                                 4.792604339294     -2.182661554083     -0.665727683284
  H                                                 5.530301863262     -0.231563088325      0.678292498780
  H                                                 3.930636798063      1.583207222302      1.222504647874
  O                                                -1.205789951382      1.481687112549     -0.544807408465
  C                                                -2.224180401247      0.623623610682     -0.219481712771
  H                                                -1.415973773790      1.944639658727     -1.361492538338
  C                                                -2.093917603310     -0.113259189601      0.949631072264
  C                                                -3.101883265789     -0.993330884290      1.311475486088
  C                                                -4.233349243844     -1.141951452795      0.519092172875
  C                                                -4.351050913036     -0.398878159104     -0.646510768463
  C                                                -3.348640063463      0.484888645289     -1.021696037149
  H                                                -1.209858449702      0.011336102100      1.564661560801
  H                                                -2.999239230468     -1.568591319725      2.225053209014
  H                                                -5.017382618090     -1.831691880190      0.808789493420
  H                                                -5.228786233360     -0.504355752285     -1.274667218292
  H                                                -3.442304407438      1.065361362375     -1.935568967980

