%Chk=x9_07_7-0_triplet
# OPT  uAPFd 6-31G(d) geom=connectivity Int=(Ultrafine,Acc2E=12)

(7,0) Nanotube (1,1,4) replication
TubeGen 3.3, J T Frey, University of Delaware

0 3
 C      0.00000000    2.75934033   -5.69745300
 C     -1.19723286    2.48607964   -3.56146897
 C     -1.19723279    2.48607951   -4.98246897
 C     -2.15733914    1.72042055   -5.69745300
 C     -2.69015781    0.61401097   -3.56146897
 C     -2.69015766    0.61401093   -4.98246897
 C     -2.69015790   -0.61401099   -5.69745300
 C     -2.15733906   -1.72042049   -3.56146897
 C     -2.15733895   -1.72042040   -4.98246897
 C     -1.19723290   -2.48607973   -5.69745300
 C      0.00000000   -2.75934023   -3.56146897
 C      0.00000000   -2.75934008   -4.98246897
 C      1.19723290   -2.48607973   -5.69745300
 C      2.15733906   -1.72042049   -3.56146897
 C      2.15733895   -1.72042040   -4.98246897
 C      2.69015790   -0.61401099   -5.69745300
 C      2.69015781    0.61401097   -3.56146897
 C      2.69015766    0.61401093   -4.98246897
 C      2.15733914    1.72042055   -5.69745300
 C      1.19723286    2.48607964   -3.56146897
 C      1.19723279    2.48607951   -4.98246897
 C      0.00000000    2.75934082   -1.42548500
 C      0.00000000    2.75934066   -2.84648500
 C     -1.19723305    2.48608005    0.71050003
 C     -1.19723305    2.48608005   -0.71050003
 C     -2.15733953    1.72042086   -1.42548500
 C     -2.15733940    1.72042076   -2.84648500
 C     -2.69015825    0.61401107    0.71050003
 C     -2.69015825    0.61401107   -0.71050003
 C     -2.69015839   -0.61401110   -1.42548500
 C     -2.69015823   -0.61401106   -2.84648500
 C     -2.15733941   -1.72042077    0.71050003
 C     -2.15733941   -1.72042077   -0.71050003
 C     -1.19723311   -2.48608018   -1.42548500
 C     -1.19723304   -2.48608003   -2.84648500
 C      0.00000000   -2.75934068    0.71050003
 C     -0.00000000   -2.75934068   -0.71050003
 C      1.19723311   -2.48608018   -1.42548500
 C      1.19723304   -2.48608003   -2.84648500
 C      2.15733941   -1.72042077    0.71050003
 C      2.15733941   -1.72042077   -0.71050003
 C      2.69015839   -0.61401110   -1.42548500
 C      2.69015823   -0.61401106   -2.84648500
 C      2.69015825    0.61401107    0.71050003
 C      2.69015825    0.61401107   -0.71050003
 C      2.15733953    1.72042086   -1.42548500
 C      2.15733940    1.72042076   -2.84648500
 C      1.19723305    2.48608005    0.71050003
 C      1.19723305    2.48608005   -0.71050003
 C      0.00000000    2.75934066    2.84648500
 C      0.00000000    2.75934082    1.42548500
 C     -1.19723279    2.48607951    4.98246897
 C     -1.19723286    2.48607964    3.56146897
 C     -2.15733940    1.72042076    2.84648500
 C     -2.15733953    1.72042086    1.42548500
 C     -2.69015766    0.61401093    4.98246897
 C     -2.69015781    0.61401097    3.56146897
 C     -2.69015823   -0.61401106    2.84648500
 C     -2.69015839   -0.61401110    1.42548500
 C     -2.15733895   -1.72042040    4.98246897
 C     -2.15733906   -1.72042049    3.56146897
 C     -1.19723304   -2.48608003    2.84648500
 C     -1.19723311   -2.48608018    1.42548500
 C     -0.00000000   -2.75934008    4.98246897
 C     -0.00000000   -2.75934023    3.56146897
 C      1.19723304   -2.48608003    2.84648500
 C      1.19723311   -2.48608018    1.42548500
 C      2.15733895   -1.72042040    4.98246897
 C      2.15733906   -1.72042049    3.56146897
 C      2.69015823   -0.61401106    2.84648500
 C      2.69015839   -0.61401110    1.42548500
 C      2.69015766    0.61401093    4.98246897
 C      2.69015781    0.61401097    3.56146897
 C      2.15733940    1.72042076    2.84648500
 C      2.15733953    1.72042086    1.42548500
 C      1.19723279    2.48607951    4.98246897
 C      1.19723286    2.48607964    3.56146897
 C      0.00000000    2.75934033    5.69745300
 C     -2.15733914    1.72042055    5.69745300
 C     -2.69015790   -0.61401099    5.69745300
 C     -1.19723290   -2.48607973    5.69745300
 C      1.19723290   -2.48607973    5.69745300
 C      2.69015790   -0.61401099    5.69745300
 C      2.15733914    1.72042055    5.69745300
 H     -2.45599543    1.95859100   -6.69694228
 H     -3.06257621   -0.69901303   -6.69694228
 H     -1.36297464   -2.83024599   -6.69694228
 H      1.36297464   -2.83024599   -6.69694228
 H      3.06257621   -0.69901303   -6.69694228
 H      2.45599543    1.95859100   -6.69694228
 H      0.00000000    3.14133606   -6.69694228
 H      0.00000000    3.14133606    6.69694228
 H      2.45599543    1.95859100    6.69694228
 H     -2.45599543    1.95859100    6.69694228
 H     -3.06257621   -0.69901303    6.69694228
 H     -1.36297464   -2.83024599    6.69694228
 H      1.36297464   -2.83024599    6.69694228
 H      3.06257621   -0.69901303    6.69694228

 1 3 1.5 21 1.5 91 1.0
 2 3 1.5 23 1.5 27 1.5
 3 4 1.5
 4 6 1.5 85 1.0
 5 6 1.5 27 1.5 31 1.5
 6 7 1.5
 7 9 1.5 86 1.0
 8 9 1.5 31 1.5 35 1.5
 9 10 1.5
 10 12 1.5 87 1.0
 11 12 1.5 35 1.5 39 1.5
 12 13 1.5
 13 15 1.5 88 1.0
 14 15 1.5 39 1.5 43 1.5
 15 16 1.5
 16 18 1.5 89 1.0
 17 18 1.5 43 1.5 47 1.5
 18 19 1.5
 19 21 1.5 90 1.0
 20 21 1.5 23 1.5 47 1.5
 21
 22 23 1.5 25 1.5 49 1.5
 23
 24 25 1.5 51 1.5 55 1.5
 25 26 1.5
 26 27 1.5 29 1.5
 27
 28 29 1.5 55 1.5 59 1.5
 29 30 1.5
 30 31 1.5 33 1.5
 31
 32 33 1.5 59 1.5 63 1.5
 33 34 1.5
 34 35 1.5 37 1.5
 35
 36 37 1.5 63 1.5 67 1.5
 37 38 1.5
 38 39 1.5 41 1.5
 39
 40 41 1.5 67 1.5 71 1.5
 41 42 1.5
 42 43 1.5 45 1.5
 43
 44 45 1.5 71 1.5 75 1.5
 45 46 1.5
 46 47 1.5 49 1.5
 47
 48 49 1.5 51 1.5 75 1.5
 49
 50 51 1.5 53 1.5 77 1.5
 51
 52 53 1.5 78 1.5 79 1.5
 53 54 1.5
 54 55 1.5 57 1.5
 55
 56 57 1.5 79 1.5 80 1.5
 57 58 1.5
 58 59 1.5 61 1.5
 59
 60 61 1.5 80 1.5 81 1.5
 61 62 1.5
 62 63 1.5 65 1.5
 63
 64 65 1.5 81 1.5 82 1.5
 65 66 1.5
 66 67 1.5 69 1.5
 67
 68 69 1.5 82 1.5 83 1.5
 69 70 1.5
 70 71 1.5 73 1.5
 71
 72 73 1.5 83 1.5 84 1.5
 73 74 1.5
 74 75 1.5 77 1.5
 75
 76 77 1.5 78 1.5 84 1.5
 77
 78 92 1.0
 79 94 1.0
 80 95 1.0
 81 96 1.0
 82 97 1.0
 83 98 1.0
 84 93 1.0
 85
 86
 87
 88
 89
 90
 91
 92
 93
 94
 95
 96
 97
 98

