%chk=x9_08_uBD_150
# uBD(T)/6-311g(2d,p) geom=connectivity

2,6-pyridyne uBD(T) scan using relaxed CAS(2,2) geometries

0 1
 N                  0.00000000    0.00000000   -1.75772843
 C                  0.00000000    0.75027090   -0.68385107
 C                  0.00000000    1.15891391    0.63126537
 C                  0.00000000    0.00000000    1.41568820
 C                  0.00000000   -1.15891391    0.63126537
 C                  0.00000000   -0.75027090   -0.68385107
 H                  0.00000000    2.17121329    0.97541703
 H                  0.00000000    0.00000000    2.49343521
 H                  0.00000000   -2.17121329    0.97541703

 1 2 2.0 6 2.0
 2 3 2.0 6 1.0
 3 4 1.5 7 1.0
 4 5 1.5 8 1.0
 5 6 2.0 9 1.0
 6
 7
 8
 9

--link1--
%oldchk=x9_08_uBD_150
%chk=x9_08_uBD_155
# uBD(T,read)/6-311g(2d,p) geom=connectivity

2,6-pyridyne uBD(T) scan using relaxed CAS(2,2) geometries

0 1
 N          0.00000000    0.00000000   -1.74461942
 C          0.00000000    0.77531580   -0.69200531
 C          0.00000000    1.15315192    0.62947149
 C          0.00000000    0.00000000    1.41697561
 C          0.00000000   -1.15315192    0.62947149
 C          0.00000000   -0.77531580   -0.69200531
 H          0.00000000    2.16510442    0.97567084
 H          0.00000000    0.00000000    2.49470550
 H          0.00000000   -2.16510442    0.97567084

 1 2 2.0 6 2.0
 2 3 2.0 6 1.0
 3 4 1.5 7 1.0
 4 5 1.5 8 1.0
 5 6 2.0 9 1.0
 6
 7
 8
 9

--link1--
%oldchk=x9_08_uBD_155
%chk=x9_08_uBD_160
# uBD(T,read)/6-311g(2d,p) geom=connectivity

2,6-pyridyne uBD(T) scan using relaxed CAS(2,2) geometries

0 1
 N          0.00000000    0.00000000   -1.73029291
 C          0.00000000    0.80011387   -0.69946679
 C          0.00000000    1.14747939    0.62873156
 C          0.00000000   -0.00000000    1.41739565
 C          0.00000000   -1.14747939    0.62873156
 C          0.00000000   -0.80011387   -0.69946679
 H          0.00000000    2.15909186    0.97670823
 H          0.00000000    0.00000000    2.49503350
 H          0.00000000   -2.15909186    0.97670823

 1 2 2.0 6 2.0
 2 3 2.0 6 1.0
 3 4 1.5 7 1.0
 4 5 1.5 8 1.0
 5 6 2.0 9 1.0
 6
 7
 8
 9

--link1--
%oldchk=x9_08_uBD_160
%chk=x9_08_uBD_165
# uBD(T,read)/6-311g(2d,p) geom=connectivity

2,6-pyridyne uBD(T) scan using relaxed CAS(2,2) geometries

0 1
 N          0.00000000    0.00000000   -1.71493815
 C          0.00000000    0.82491728   -0.70664500
 C          0.00000000    1.14289654    0.62805101
 C          0.00000000   -0.00000000    1.41652534
 C          0.00000000   -1.14289654    0.62805101
 C          0.00000000   -0.82491728   -0.70664500
 H          0.00000000    2.15398070    0.97838815
 H          0.00000000    0.00000000    2.49389400
 H          0.00000000   -2.15398070    0.97838815

 1 2 2.0 6 2.0
 2 3 2.0
 3 4 1.5 7 1.0
 4 5 1.5 8 1.0
 5 6 2.0 9 1.0
 6
 7
 8
 9

--link1--
%oldchk=x9_08_uBD_165
%chk=x9_08_uBD_170
# uBD(T,read)/6-311g(2d,p) geom=connectivity

2,6-pyridyne uBD(T) scan using relaxed CAS(2,2) geometries

0 1
 N          0.00000000    0.00000000   -1.69819127
 C          0.00000000    0.85003947   -0.71365403
 C          0.00000000    1.14009705    0.62632454
 C          0.00000000    0.00000000    1.41376989
 C          0.00000000   -1.14009705    0.62632454
 C          0.00000000   -0.85003947   -0.71365403
 H          0.00000000    2.15008329    0.98053881
 H          0.00000000    0.00000000    2.49079577
 H          0.00000000   -2.15008329    0.98053881

 1 2 2.0 6 2.0
 2 3 2.0
 3 4 2.0 7 1.0
 4 5 2.0 8 1.0
 5 6 2.0 9 1.0
 6
 7
 8
 9

--link1--
%oldchk=x9_08_uBD_170
%chk=x9_08_uBD_175
# uBD(T,read)/6-311g(2d,p) geom=connectivity

2,6-pyridyne uBD(T) scan using relaxed CAS(2,2) geometries

0 1
 N          0.00000000    0.00000000   -1.68157367
 C          0.00000000    0.87527909   -0.71984488
 C          0.00000000    1.13924202    0.62483436
 C          0.00000000    0.00000000    1.40949900
 C          0.00000000   -1.13924202    0.62483436
 C          0.00000000   -0.87527909   -0.71984488
 H          0.00000000    2.14701932    0.98577978
 H          0.00000000    0.00000000    2.48640146
 H          0.00000000   -2.14701932    0.98577978

 1 2 2.0 6 2.0
 2 3 2.0
 3 4 2.0 7 1.0
 4 5 2.0 8 1.0
 5 6 2.0 9 1.0
 6
 7
 8
 9

--link1--
%oldchk=x9_08_uBD_175
%chk=x9_08_uBD_180
# uBD(T,read)/6-311g(2d,p) geom=connectivity

2,6-pyridyne uBD(T) scan using relaxed CAS(2,2) geometries

0 1
 N          0.00000000    0.00000000   -1.66426462
 C          0.00000000    0.90050492   -0.72545378
 C          0.00000000    1.14023845    0.62347832
 C          0.00000000    0.00000000    1.40342005
 C          0.00000000   -1.14023845    0.62347832
 C          0.00000000   -0.90050492   -0.72545378
 H          0.00000000    2.14480957    0.99364378
 H          0.00000000    0.00000000    2.48030422
 H          0.00000000   -2.14480957    0.99364378

 1 2 2.0 6 2.0
 2 3 2.0
 3 4 2.0 7 1.0
 4 5 2.0 8 1.0
 5 6 2.0 9 1.0
 6
 7
 8
 9

--link1--
%oldchk=x9_08_uBD_180
%chk=x9_08_uBD_185
# uBD(T,read)/6-311g(2d,p) geom=connectivity

2,6-pyridyne uBD(T) scan using relaxed CAS(2,2) geometries

0 1
 N          0.00000000    0.00000000   -1.64590386
 C          0.00000000    0.92485419   -0.73199989
 C          0.00000000    1.14320006    0.62026080
 C          0.00000000    0.00000000    1.39573483
 C          0.00000000   -1.14320006    0.62026080
 C          0.00000000   -0.92485419   -0.73199989
 H          0.00000000    2.14457336    0.99957710
 H          0.00000000    0.00000000    2.47234114
 H          0.00000000   -2.14457336    0.99957710

 1 2 2.0 6 2.0
 2 3 2.0
 3 4 2.0 7 1.0
 4 5 2.0 8 1.0
 5 6 2.0 9 1.0
 6
 7
 8
 9

--link1--
%oldchk=x9_08_uBD_185
%chk=x9_08_uBD_190
# uBD(T,read)/6-311g(2d,p) geom=connectivity

2,6-pyridyne uBD(T) scan using relaxed CAS(2,2) geometries

0 1
 N          0.00000000    0.00000000   -1.62689080
 C          0.00000000    0.95003737   -0.73667357
 C          0.00000000    1.14722400    0.61886374
 C          0.00000000    0.00000000    1.38630137
 C          0.00000000   -1.14722400    0.61886374
 C          0.00000000   -0.95003737   -0.73667357
 H          0.00000000    2.14385501    1.01089106
 H          0.00000000    0.00000000    2.46277833
 H          0.00000000   -2.14385501    1.01089106

 1 2 2.0 6 2.0
 2 3 2.0
 3 4 2.0 7 1.0
 4 5 2.0 8 1.0
 5 6 2.0 9 1.0
 6
 7
 8
 9

--link1--
%oldchk=x9_08_uBD_190
%chk=x9_08_uBD_195
# uBD(T,read)/6-311g(2d,p) geom=connectivity

2,6-pyridyne uBD(T) scan using relaxed CAS(2,2) geometries

0 1
 N          0.00000000    0.00000000   -1.60703000
 C          0.00000000    0.97493831   -0.74176046
 C          0.00000000    1.15314210    0.61640378
 C          0.00000000    0.00000000    1.37541762
 C          0.00000000   -1.15314210    0.61640378
 C          0.00000000   -0.97493831   -0.74176046
 H          0.00000000    2.14444074    1.02230534
 H          0.00000000    0.00000000    2.45171913
 H          0.00000000   -2.14444074    1.02230534

 1 2 2.0 6 2.0
 2 3 2.0
 3 4 2.0 7 1.0
 4 5 2.0 8 1.0
 5 6 2.0 9 1.0
 6
 7
 8
 9

--link1--
%oldchk=x9_08_uBD_195
%chk=x9_08_uBD_200
# uBD(T,read)/6-311g(2d,p) geom=connectivity

2,6-pyridyne uBD(T) scan using relaxed CAS(2,2) geometries

0 1
 N          0.00000000   -0.00000000   -1.58669243
 C          0.00000000    1.00004590   -0.74620902
 C          0.00000000    1.15980330    0.61435077
 C          0.00000000    0.00000000    1.36328247
 C          0.00000000   -1.15980330    0.61435077
 C          0.00000000   -1.00004590   -0.74620902
 H          0.00000000    2.14463158    1.03599443
 H          0.00000000   -0.00000000    2.43948351
 H          0.00000000   -2.14463158    1.03599443

 1 2 2.0 6 2.0
 2 3 2.0
 3 4 2.0 7 1.0
 4 5 2.0 8 1.0
 5 6 2.0 9 1.0
 6
 7
 8
 9

--link1--
%oldchk=x9_08_uBD_200
%chk=x9_08_uBD_205
# uBD(T,read)/6-311g(2d,p) geom=connectivity

2,6-pyridyne uBD(T) scan using relaxed CAS(2,2) geometries

0 1
 N          0.00000000    0.00000000   -1.56576295
 C          0.00000000    1.02498619   -0.75084402
 C          0.00000000    1.16766527    0.61187025
 C          0.00000000   -0.00000000    1.35015562
 C          0.00000000   -1.16766527    0.61187025
 C          0.00000000   -1.02498619   -0.75084402
 H          0.00000000    2.14541800    1.04994449
 H          0.00000000    0.00000000    2.42627736
 H          0.00000000   -2.14541800    1.04994449

 1 2 2.0 6 2.0
 2 3 2.0
 3 4 2.0 7 1.0
 4 5 2.0 8 1.0
 5 6 2.0 9 1.0
 6
 7
 8
 9

--link1--
%oldchk=x9_08_uBD_205
%chk=x9_08_uBD_210
# uBD(T,read)/6-311g(2d,p) geom=connectivity

2,6-pyridyne uBD(T) scan using relaxed CAS(2,2) geometries

0 1
 N          0.00000000   -0.00000000   -1.54439695
 C          0.00000000    1.05000580   -0.75523527
 C          0.00000000    1.17639639    0.60952964
 C          0.00000000    0.00000000    1.33625292
 C          0.00000000   -1.17639639    0.60952964
 C          0.00000000   -1.05000580   -0.75523527
 H          0.00000000    2.14642896    1.06483931
 H          0.00000000   -0.00000000    2.41228356
 H          0.00000000   -2.14642896    1.06483931

 1 2 2.0 6 2.0
 2 3 2.0
 3 4 2.0 7 1.0
 4 5 2.0 8 1.0
 5 6 2.0 9 1.0
 6
 7
 8
 9

--link1--
%oldchk=x9_08_uBD_210
%chk=x9_08_uBD_215
# uBD(T,read)/6-311g(2d,p) geom=connectivity

2,6-pyridyne uBD(T) scan using relaxed CAS(2,2) geometries

0 1
 N          0.00000000    0.00000000   -1.52284999
 C          0.00000000    1.07500242   -0.75958995
 C          0.00000000    1.18549809    0.60717918
 C          0.00000000    0.00000000    1.32178306
 C          0.00000000   -1.18549809    0.60717918
 C          0.00000000   -1.07500242   -0.75958995
 H          0.00000000    2.14712140    1.08026061
 H          0.00000000    0.00000000    2.39774505
 H          0.00000000   -2.14712140    1.08026061

 1 2 2.0 6 2.0
 2 3 2.0
 3 4 2.0 7 1.0
 4 5 2.0 8 1.0
 5 6 2.0 9 1.0
 6
 7
 8
 9

--link1--
%oldchk=x9_08_uBD_215
%chk=x9_08_uBD_220
# uBD(T,read)/6-311g(2d,p) geom=connectivity

2,6-pyridyne uBD(T) scan using relaxed CAS(2,2) geometries

0 1
 N          0.00000000   -0.00000000   -1.50161170
 C          0.00000000    1.10000003   -0.76384068
 C          0.00000000    1.19500379    0.60491653
 C          0.00000000   -0.00000000    1.30726220
 C          0.00000000   -1.19500379    0.60491653
 C          0.00000000   -1.10000003   -0.76384068
 H          0.00000000    2.14777719    1.09578492
 H          0.00000000   -0.00000000    2.38321245
 H          0.00000000   -2.14777719    1.09578492

 1 2 1.5 6 1.5
 2 3 2.0
 3 4 1.5 7 1.0
 4 5 1.5 8 1.0
 5 6 2.0 9 1.0
 6
 7
 8
 9

--link1--
%oldchk=x9_08_uBD_220
%chk=x9_08_uBD_225
# uBD(T,read)/6-311g(2d,p) geom=connectivity

2,6-pyridyne uBD(T) scan using relaxed CAS(2,2) geometries

0 1
 N          0.00000000    0.00000000   -1.48075464
 C          0.00000000    1.12500082   -0.76802229
 C          0.00000000    1.20465333    0.60280769
 C          0.00000000    0.00000000    1.29282784
 C          0.00000000   -1.20465333    0.60280769
 C          0.00000000   -1.12500082   -0.76802229
 H          0.00000000    2.14844070    1.11108500
 H          0.00000000    0.00000000    2.36873522
 H          0.00000000   -2.14844070    1.11108500

 1 2 1.5 6 1.5
 2 3 2.0
 3 4 1.5 7 1.0
 4 5 1.5 8 1.0
 5 6 2.0 9 1.0
 6
 7
 8
 9

--link1--
%oldchk=x9_08_uBD_225
%chk=x9_08_uBD_230
# uBD(T,read)/6-311g(2d,p) geom=connectivity

2,6-pyridyne uBD(T) scan using relaxed CAS(2,2) geometries

0 1
 N          0.00000000    0.00000000   -1.46161559
 C          0.00000000    1.15000583   -0.77177220
 C          0.00000000    1.21399751    0.60107368
 C          0.00000000    0.00000000    1.27887972
 C          0.00000000   -1.21399751    0.60107368
 C          0.00000000   -1.15000583   -0.77177220
 H          0.00000000    2.14872518    1.12587013
 H          0.00000000    0.00000000    2.35495578
 H          0.00000000   -2.14872518    1.12587013

 1 2 1.5 6 1.5
 2 3 2.0
 3 4 1.5 7 1.0
 4 5 1.5 8 1.0
 5 6 2.0 9 1.0
 6
 7
 8
 9

--link1--
%oldchk=x9_08_uBD_230
%chk=x9_08_uBD_235
# uBD(T,read)/6-311g(2d,p) geom=connectivity

2,6-pyridyne uBD(T) scan using relaxed CAS(2,2) geometries

0 1
 N          0.00000000    0.00000000   -1.44283492
 C          0.00000000    1.17500972   -0.77569604
 C          0.00000000    1.22322599    0.59933416
 C          0.00000000    0.00000000    1.26559524
 C          0.00000000   -1.22322599    0.59933416
 C          0.00000000   -1.17500972   -0.77569604
 H          0.00000000    2.14877507    1.14074450
 H          0.00000000    0.00000000    2.34152447
 H          0.00000000   -2.14877507    1.14074450

 1 2 1.5 6 1.5
 2 3 2.0
 3 4 1.5 7 1.0
 4 5 1.5 8 1.0
 5 6 2.0 9 1.0
 6
 7
 8
 9

--link1--
%oldchk=x9_08_uBD_235
%chk=x9_08_uBD_240
# uBD(T,read)/6-311g(2d,p) geom=connectivity

2,6-pyridyne uBD(T) scan using relaxed CAS(2,2) geometries

0 1
 N          0.00000000    0.00000000   -1.42638862
 C          0.00000000    1.20000017   -0.77908159
 C          0.00000000    1.23222446    0.59797080
 C          0.00000000    0.00000000    1.25276512
 C          0.00000000   -1.23222446    0.59797080
 C          0.00000000   -1.20000017   -0.77908159
 H          0.00000000    2.14773511    1.15628660
 H          0.00000000    0.00000000    2.32892537
 H          0.00000000   -2.14773511    1.15628660

 1 2 1.5 6 1.5
 2 3 2.0
 3 4 1.5 7 1.0
 4 5 1.5 8 1.0
 5 6 2.0 9 1.0
 6
 7
 8
 9

