%OldCHk=x9_08_casorbs
%Chk=x9_08_scan
# Opt=ModRedundant CASSCF(2,2)/6-311g(2d,p) Guess=Read

2,6-pyridyne: CAS scan from 2.4 to 1.5 angstroms

0 1
 N                  0.00000000    0.00000000    1.48993500
 C                  0.00000000    1.20000000    0.78923500
 C                  0.00000000    1.21364800   -0.61216500
 C                  0.00000000    0.00000000   -1.31286500
 C                  0.00000000   -1.21364800   -0.61216500
 C                  0.00000000   -1.20000000    0.78923500
 H                  0.00000000    2.14029518   -1.14716500
 H                  0.00000000    0.00000000   -2.38286500
 H                  0.00000000   -2.14029518   -1.14716500

B 2 6 S 18 -0.050000

