# uff symm=com iop(2/33=2)

Fragment 1 from phenol dimer at counterpoise APFD/6-311+G(2d,p)

0 1 
 O(Fragment=1)     -1.35891912    1.92189221    0.45357667
 H(Fragment=1)     -0.48874023    1.96897427    0.02866380
 C(Fragment=1)     -1.98846301    0.77184561    0.10885647
 C(Fragment=1)     -1.44495462   -0.15819859   -0.77856869
 C(Fragment=1)     -3.23345181    0.52810089    0.68478488
 C(Fragment=1)     -2.14570514   -1.31937089   -1.07678203
 H(Fragment=1)     -0.47377779    0.02443929   -1.22669823
 C(Fragment=1)     -3.92354004   -0.63362581    0.37631942
 H(Fragment=1)     -3.64185213    1.26157973    1.37169468
 C(Fragment=1)     -3.38645068   -1.56662981   -0.50474586
 H(Fragment=1)     -1.71113647   -2.03752945   -1.76526968
 H(Fragment=1)     -4.89297173   -0.81242882    0.83115989
 H(Fragment=1)     -3.92941523   -2.47504617   -0.74172012

--link1--
# uff symm=com iop(2/33=2)

Fragment 2 from phenol dimer at counterpoise APFD/6-311+G(2d,p)

0 1
 O(Fragment=2)      1.32139029    1.94127689   -0.46362032
 H(Fragment=2)      1.70179753    2.34573013   -1.24888787
 C(Fragment=2)      2.01488407    0.80072191   -0.13851082
 C(Fragment=2)      3.08338197    0.34150809   -0.89932234
 C(Fragment=2)      1.59290301    0.10477257    0.98623199
 C(Fragment=2)      3.73507885   -0.82657358   -0.52431349
 H(Fragment=2)      3.40529333    0.89166674   -1.78010825
 C(Fragment=2)      2.25045070   -1.06151295    1.34613659
 H(Fragment=2)      0.75208747    0.47757061    1.56053618
 C(Fragment=2)      3.32265453   -1.53310688    0.59703510
 H(Fragment=2)      4.56994568   -1.18353800   -1.11841125
 H(Fragment=2)      1.91661790   -1.60809785    2.22185112
 H(Fragment=2)      3.83165529   -2.44625666    0.88481171

