%chk=x9_02_ru.chk
# opt freq apfd geom=connectivity def2tzvpp nmr Int=(Ultrafine,Acc2E=12)

RuO4

0 1
 O                  0.00000000    0.00000000    1.77480569
 O                  0.00000000    1.71591246   -0.53686097
 O                  1.48602378   -0.85795623   -0.53686097
 O                 -1.48602378   -0.85795623   -0.53686097
 Ru                 0.00000000    0.00000000    0.06980569

 1 5 1.0
 2 5 1.0
 3 5 1.0
 4 5 1.0
 5

