# UFF Symmetry=COM IOP(2/33=2)

Fragment 1 from phenol dimer at APF/6-311+G(2d,p)

 0,1
 C                  2.30240402    0.65919730    0.19092660
 O                  1.47484372    1.67983001    0.52100163
 H                  0.59342004    1.53402724    0.14543803
 C                  1.88359264   -0.43530159   -0.56287848
 C                  2.78113704   -1.44989586   -0.86618235
 C                  4.09556131   -1.38780101   -0.42585164
 C                  4.50574591   -0.29331159    0.32678369
 C                  3.62022966    0.72603716    0.63629838
 H                  0.85544786   -0.49000363   -0.90727712
 H                  2.44393961   -2.29790176   -1.45321884
 H                  4.79277456   -2.18249652   -0.66501882
 H                  5.53030284   -0.23106228    0.67860708
 H                  3.93051306    1.58374023    1.22234594

--link1--
# UFF Symmetry=COM IOP(2/33=2)

Fragment 2 from phenol dimer at APF/6-311+G(2d,p)

 0,1
 O                 -1.20582614    1.48155090   -0.54518325
 C                 -2.22418492    0.62350315   -0.21971644
 H                 -1.41599723    1.94431252   -1.36197994
 C                 -2.09393632   -0.11311567    0.94956439
 C                 -3.10187080   -0.99316301    1.31155524
 C                 -4.23329181   -1.14201958    0.51915182
 C                 -4.35097978   -0.39920881   -0.64661995
 C                 -3.34859969    0.48453042   -1.02195272
 H                 -1.20991258    0.01166312    1.56460873
 H                 -2.99923789   -1.56821712    2.22526420
 H                 -5.01730104   -1.83173926    0.80896418
 H                 -5.22868012   -0.50487243   -1.27479415
 H                 -3.44225318    1.06479723   -1.93595762

