%Chk=x9_08_orbs
# UHF/6-311g(2d,p) Guess=Mix Stable=Opt Pop=(NaturalOrbitals,SaveNatural)

2,6-pyridyne: monocyclic structure (C2-C6 = 2.4)

0 1
 N                  0.00000000    0.00000000    1.48993500
 C                  0.00000000    1.20000000    0.78923500
 C                  0.00000000    1.21364800   -0.61216500
 C                  0.00000000    0.00000000   -1.31286500
 C                  0.00000000   -1.21364800   -0.61216500
 C                  0.00000000   -1.20000000    0.78923500
 H                  0.00000000    2.14029518   -1.14716500
 H                  0.00000000    0.00000000   -2.38286500
 H                  0.00000000   -2.14029518   -1.14716500

--link1--
%OldChk=x9_08_orbs
%Chk=x9_08_casorbs
# CAS(2,2,UNO)/6-311G(2d,p) Guess=Read Geom=AllCheck 

