%Chk=e6_02_anion
# opt freq APFD/6-311+g(2d,p) geom=connectivity Int=(UltraFine,Acc2E=12)

Al5O4- Opt Freq

-1 1
 O                  0.00000000    1.78623500    0.24500000
 O                  1.78623500    0.00000000   -0.24500000
 O                  0.00000000   -1.78623500    0.24500000
 O                 -1.78623500    0.00000000   -0.24500000
 Al                 0.00000000    0.00000000    0.00000000
 Al                 1.90518200    1.90518200    0.00000000
 Al                 1.90518200   -1.90518200    0.00000000
 Al                -1.90518200   -1.90518200    0.00000000
 Al                -1.90518200    1.90518200    0.00000000

 1 5 1.0 6 1.0 9 1.0
 2 5 1.0 6 1.0 7 1.0
 3 5 1.0 7 1.0 8 1.0
 4 5 1.0 8 1.0 9 1.0
 5
 6
 7
 8
 9

