%Chk=e6_02_neutral
# opt freq APFD/6-311+g(2d,p) geom=connectivity Int=(UltraFine,Acc2E=12)

Al5O4 neutral doublet

0 2
 O                 -1.11534000   -0.96678600    0.91256100
 O                 -0.29628700   -1.47873400   -1.44290100
 O                 -0.60747700    1.30302900   -0.14283400
 O                  1.88511100   -0.17287200    0.16388300
 Al                 0.24501600   -0.29701100   -0.26102600
 Al                -1.45481000   -2.16198000   -0.38378000
 Al                -1.93437200    0.65942400    1.21736700
 Al                 3.54451100   -0.31407300    0.49136300
 Al                -0.31788800    2.92309300   -0.75051400

 1 5 1.0 6 1.0 7 1.0
 2 5 1.0 6 1.0
 3 5 1.0 7 1.0 9 1.0
 4 5 1.0 8 1.0
 5 6 1.0
 6
 7
 8
 9

