%chk=e6_03_tetralin_b_below
# FREQ APFd/6-311+G(2d,p) Geom=Connectivity Int(UltraFine,ACC2E=12)

2-deuterotetralin cation (deuterium cis to closest pseudoaxial hydrogen)

1 1
 C                 -1.27840750   -1.38157020    0.04420877
 C                 -2.56478537   -0.68849477   -0.00062463
 C                 -2.51315285    0.77183136   -0.04212557
 C                 -1.32282691    1.41728520   -0.04003419
 C                 -0.10147749    0.69581139    0.00675380
 C                 -0.08117285   -0.72814746    0.05456515
 C                  1.22140364   -1.48355503    0.12412457
 C                  2.40461725   -0.66959732   -0.38658552
 C                  2.42812159    0.69193916    0.29437756
 C                  1.16229385    1.47332183   -0.03537971
 H                 -1.29689809   -2.46849625    0.07181378
 H                 -1.28175259    2.50128567   -0.07395450
 H                 -3.44795440    1.32301914   -0.07683701
 H                 -3.16178589   -1.06511500   -0.85266637
 H                  1.04835316    2.37092951    0.58431422
 H                  1.39614209   -1.75935940    1.17175325
 H                  1.11950351   -2.42340932   -0.42507010
 H                  1.21796562    1.86648614   -1.06594707
 H                  3.29976456    1.27339046   -0.01292122
 H                  2.50746051    0.56199918    1.37940025
 H                  3.33254415   -1.21321736   -0.19777041
 H                  2.33186538   -0.54246545   -1.47327284
 H(Iso=2)          -3.19130798   -1.01808314    0.84994636

 1 2 2.0 6 1.5 11 1.0
 2 3 1.5 14 1.0 23 1.0
 3 4 2.0 13 1.0
 4 5 1.5 12 1.0
 5 6 1.5 10 1.0
 6 7 1.0
 7 8 1.0 16 1.0 17 1.0
 8 9 1.0 21 1.0 22 1.0
 9 10 1.0 19 1.0 20 1.0
 10 15 1.0 18 1.0
 11
 12
 13
 14
 15
 16
 17
 18
 19
 20
 21
 22
 23

