%Chk=e6_07_ts2
# OPT=QST2 FREQ APFd 6-311+G(2d,p) Geom=Connectivity Int(Ultrafine,Acc2E=12)

CH2O <---> HCOH TS

0 1
 C                  0.01058324    0.74131432    0.00000000
 O                  0.01058324   -0.56840562    0.00000000
 H                 -1.07708721    0.98180888    0.00000000
 H                  0.92892181   -0.88244985    0.00000000

 1 2 1.5 3 1.0
 2 4 1.0
 3
 4

CH2O <---> HCOH TS

0 1
 C                  0.00000000    0.00000000   -0.52703800
 O                  0.00000000    0.00000000    0.67320700
 H                  0.00000000   -0.94067800   -1.11171200
 H                  0.00000000    0.94067800   -1.11171200

 1 2 2.0 3 1.0 4 1.0
 2
 3
 4

