%chk=e6_05_dcb_e
# OPT FREQ APFd 6-311+G(2d,p) SCRF(SMD,Solvent=o-dichlorobenzene) Geom=Connectivity INT(Ultrafine,ACC2E=12)

N-Methyl-(2-nitrovinyl)amine E Form

0 1
 N                 -1.66907904    0.06371327    0.00000000
 C                 -0.45972838   -0.62440106    0.00000000
 O                 -2.70561349   -0.61813564    0.00000000
 O                 -1.68916734    1.30368998    0.00000000
 C                  0.70729293    0.08684363    0.00000000
 H                 -0.53904341   -1.70085405    0.00000000
 H                  0.65819080    1.17129681    0.00000000
 N                  1.94030659   -0.45196679    0.00000000
 H                  2.02674805   -1.46062187    0.00000000
 C                  3.17324825    0.31684000    0.00000000
 H                  2.93711586    1.38047689    0.00000000
 H                  3.76601898    0.08665206   -0.88888824
 H                  3.76601898    0.08665206    0.88888824

 1 2 1.0 3 1.5 4 1.5
 2 5 2.0 6 1.0
 3
 4
 5 7 1.0 8 2.0
 6
 7
 8 9 1.0 10 1.0
 9
 10 11 1.0 12 1.0 13 1.0
 11
 12
 13

