%chk=e6_05_dmf_e
# OPT FREQ APFd 6-311+G(2d,p) SCRF(SMD,Solvent=N,N-dimethylformamide) Geom=Connectivity INT(Ultrafine,ACC2E=12)

N-Methyl-(2-nitrovinyl)amine E Form

0 1
 N                 -1.68393527    0.06889951    0.00000000
 C                 -0.47638549   -0.61460337    0.00000000
 O                 -2.72253653   -0.61442559    0.00000000
 O                 -1.70954997    1.31092723    0.00000000
 C                  0.69267711    0.09784972    0.00000000
 H                 -0.55065954   -1.69156537    0.00000000
 H                  0.64674849    1.18249060    0.00000000
 N                  1.95518180   -0.45935933    0.00000000
 H                  2.03851084   -1.46889796    0.00000000
 C                  3.18417612    0.30074904    0.00000000
 H                  2.95256313    1.36528168    0.00000000
 H                  3.77548196    0.06561133   -0.88847321
 H                  3.77548196    0.06561133    0.88847321

 1 2 1.0 3 1.5 4 1.5
 2 5 2.0 6 1.0
 3
 4
 5 7 1.0 8 1.5
 6
 7
 8 9 1.0 10 1.0
 9
 10 11 1.0 12 1.0 13 1.0
 11
 12
 13

