%chk=e6_05_dcb_scan
# opt=modredundant APFd 6-311+g(2d,p) geom=connectivity scrf(smd,solvent=o-dichlorobenzene) int(ultrafine,acc2e=12)

Z to E scan of NO2-C-C-NH bond rotation in N-methyl-(2-notrovinyl)amine

0 1
 N                 -1.46891100    0.11084200    0.00000700
 C                 -0.62471500   -0.98143400    0.00002300
 O                 -2.69150100   -0.08418500   -0.00012100
 O                 -0.98063600    1.26350100    0.00010500
 C                  0.74764000   -0.87880500    0.00002600
 H                 -1.11786300   -1.93948500    0.00019700
 H                  1.29972400   -1.81451200    0.00019500
 N                  1.47867600    0.21540300    0.00001400
 H                  0.96653100    1.09273700   -0.00002900
 C                  2.92217000    0.23237700   -0.00006100
 H                  3.30186500   -0.78903400   -0.00080000
 H                  3.29406100    0.74901700    0.88795000
 H                  3.29386000    0.75020100   -0.88745400

 1 2 1.5 3 1.5 4 1.5
 2 5 2.0 6 1.0
 3
 4
 5 7 1.0 8 2.0
 6
 7
 8 9 1.0 10 1.0
 9
 10 11 1.0 12 1.0 13 1.0
 11
 12
 13

D 1 2 5 8 S 36 5.000000

