%Chk=e6_09_ethane
# OPT FREQ APFd 6-311+G(2d,p) Geom=Connectivity Int(Ultrafine,Acc2E=12)

Ethane Opt Freq

0 1
 C                  0.00000000    0.00000000    0.00000000
 C                  0.00000000    0.00000000    1.52724056
 H                  1.01210224    0.00000000   -0.39265236
 H                 -0.50605112   -0.87650625   -0.39265236
 H                 -0.50605112    0.87650625   -0.39265236
 H                 -1.01210224    0.00000000    1.91989292
 H                  0.50605112   -0.87650625    1.91989292
 H                  0.50605112    0.87650625    1.91989292

 1 2 1.0 3 1.0 4 1.0 5 1.0
 2 6 1.0 7 1.0 8 1.0
 3
 4
 5
 6
 7
 8

