%chk=e6_03_indane_a_below
# freq apfd/6-311+g(2d,p) geom=connectivity int=(ultrafine,acc2e=12)

1-deuteroindane cation (deuterium trans to cyclopentene pucker)

1 1
 C                 -1.08097600   -1.39393000   -0.00100600
 C                 -2.30443700   -0.57941700   -0.04525800
 C                 -2.24342800    0.77760600   -0.04393200
 C                 -0.98511600    1.42472900    0.00744700
 C                  0.21229300    0.71826800    0.04823400
 C                  0.18220800   -0.66224100    0.04836900
 C                  1.55274500   -1.22278600    0.12494500
 C                  2.44929400   -0.02758200   -0.25452800
 C                  1.62601600    1.22161200    0.11740200
 H(Iso=2)          -1.13689700   -2.11443200    0.83516000
 H                 -0.96115600    2.51219100    0.01086700
 H                 -3.14743200    1.37438400   -0.08291200
 H                 -3.25857400   -1.09527800   -0.08807400
 H                  1.80931800    2.07110600   -0.54309500
 H                  1.84392200    1.55802500    1.13792100
 H                  3.41849800   -0.05935900    0.24171700
 H                  2.63232600   -0.04200400   -1.33184400
 H                  1.72687400   -1.54219000    1.16516200
 H                  1.69444600   -2.11683400   -0.48852300
 H                 -1.07292200   -2.08316200   -0.86642200

 1 2 1.0 6 1.0 10 1.0 20 1.0
 2 3 2.0 13 1.0
 3 4 1.5 12 1.0
 4 5 1.5 11 1.0
 5 6 2.0 9 1.0
 6 7 1.0
 7 8 1.0 18 1.0 19 1.0
 8 9 1.0 16 1.0 17 1.0
 9 14 1.0 15 1.0
 10
 11
 12
 13
 14
 15
 16
 17
 18
 19
 20

