%chk=e6_03_indane_a
# FREQ APFd/6-311+G(2d,p) Geom=Connectivity Int(UltraFine,ACC2E=12)

1-deuteroindane cation (deuterium cis to cyclopentene pucker)

1 1
 C                 -1.08097781   -1.39392721   -0.00100810
 C                 -2.30443603   -0.57941021   -0.04525962
 C                 -2.24342281    0.77761312   -0.04393457
 C                 -0.98510848    1.42473180    0.00744521
 C                  0.21229774    0.71826700    0.04823207
 C                  0.18220822   -0.66224170    0.04836701
 C                  1.55274364   -1.22279161    0.12494320
 C                  2.44929686   -0.02758978   -0.25453029
 C                  1.62602272    1.22160634    0.11740004
 H                 -1.13690115   -2.11442857    0.83515834
 H                 -0.96114541    2.51219396    0.01086536
 H                 -3.14742462    1.37439372   -0.08291454
 H                 -3.25857457   -1.09526788   -0.08807651
 H                  1.80932711    2.07109973   -0.54309756
 H                  1.84392959    1.55801908    1.13791872
 H                  3.41850094   -0.05937007    0.24171493
 H                  2.63232888   -0.04201226   -1.33184657
 H                  1.72687234   -1.54219591    1.16516015
 H                  1.69444185   -2.11683915   -0.48852543
 H(Iso=2)          -1.07292598   -2.08315911   -0.86642429

 1 2 1.5 6 1.5 10 1.0 20 1.0
 2 3 1.5 13 1.0
 3 4 1.5 12 1.0
 4 5 1.5 11 1.0
 5 6 1.5 9 1.0
 6 7 1.0
 7 8 1.0 18 1.0 19 1.0
 8 9 1.0 16 1.0 17 1.0
 9 14 1.0 15 1.0
 10
 11
 12
 13
 14
 15
 16
 17
 18
 19
 20


