%Chk=e6_07_hcoh_trans
# OPT FREQ APFd 6-311+G(2d,p) Geom=Connectivity INT(Ultrafine,ACC2E=12)

Trans HCOH

0 1
 C                 -2.22817890   -0.81251312    0.00000000
 H                 -1.69369401   -1.73945751    0.00000000
 O                 -3.65817868   -0.81171834    0.00000000
 H                 -3.97767559    0.09355605    0.00000000

 1 2 1.0 3 1.0
 2
 3 4 1.0
 4

