%Chk=e6_08_co2
# OPT FREQ APFd 6-311+G(2d,p) Geom=Connectivity INT(Ultrafine,ACC2E=12)

Carbon dioxide

0 1
 C                 -0.42035397    1.65929201    0.00000000
 O                  0.83804603    1.65929201    0.00000000
 O                 -1.67875397    1.65929201    0.00000000

 1 2 2.0 3 2.0
 2
 3

