%chk=e6_03_tetralin_a_below
# freq apfd/6-311+g(2d,p) geom=connectivity int=(ultrafine,acc2e=12)

1-deuterotetralin cation (deuterium pseudoequatorial)

1 1
 C                 -1.39064700   -1.37065800    0.02478800
 C                 -2.62070600   -0.57665300    0.03912400
 C                 -2.55916200    0.77784700   -0.00494100
 C                 -1.29389400    1.39838300   -0.05233300
 C                 -0.07074200    0.71898500   -0.03837300
 C                 -0.09951500   -0.66503000    0.01832000
 C                  1.14572300   -1.47486800    0.08516200
 C                  2.39715300   -0.70725400   -0.33089000
 C                  2.42384600    0.65822400    0.34428000
 C                  1.22152300    1.49130200   -0.08776900
 H(Iso=2)          -1.40858900   -2.12914000    0.82555900
 H                 -1.26356900    2.48562000   -0.09660700
 H                 -3.45676500    1.38527400   -0.00767000
 H                 -3.57135700   -1.10044400    0.06429000
 H                  1.12702400    2.39055500    0.52821800
 H                  1.24349700   -1.80225500    1.13330900
 H                  1.01816800   -2.40161400   -0.48550500
 H                  1.36298500    1.84464200   -1.11724300
 H                  3.34531100    1.19205100    0.10293700
 H                  2.41395900    0.52990400    1.43295000
 H                  3.28263000   -1.29089400   -0.07099900
 H                  2.40935000   -0.58670600   -1.41981600
 H                 -1.42412700   -2.01865400   -0.87363400

 1 2 1.0 6 1.0 11 1.0 23 1.0
 2 3 2.0 14 1.0
 3 4 1.5 13 1.0
 4 5 1.5 12 1.0
 5 6 2.0 10 1.0
 6 7 1.0
 7 8 1.0 16 1.0 17 1.0
 8 9 1.0 21 1.0 22 1.0
 9 10 1.0 19 1.0 20 1.0
 10 15 1.0 18 1.0
 11
 12
 13
 14
 15
 16
 17
 18
 19
 20
 21
 22
 23

