%chk=e6_03_tetralin_b
# freq apfd/6-311+g(2d,p) geom=connectivity int=(ultrafine,acc2e=12)

2-deuterotetralin cation (deuterium trans to closest pseudoaxial hydrogen)

1 1
 C                  1.27844100   -1.38155800   -0.04428500
 C                  2.56481300   -0.68847200    0.00054900
 C                  2.51316800    0.77185300    0.04205000
 C                  1.32283700    1.41729700    0.03995800
 C                  0.10149300    0.69581300   -0.00683000
 C                  0.08120100   -0.72814600   -0.05464100
 C                 -1.22137000   -1.48356400   -0.12420000
 C                 -2.40459000   -0.66961600    0.38651000
 C                 -2.42810600    0.69192000   -0.29445300
 C                 -1.16228400    1.47331300    0.03530400
 H                  1.29694000   -2.46848400   -0.07189000
 H                  1.28175300    2.50129800    0.07387900
 H                  3.44796500    1.32304900    0.07676100
 H(Iso=2)           3.16181600   -1.06508700    0.85259100
 H                 -1.04835100    2.37092200   -0.58439000
 H                 -1.39610600   -1.75937000   -1.17182900
 H                 -1.11946200   -2.42341700    0.42499400
 H                 -1.21795900    1.86647700    1.06587100
 H                 -3.29975300    1.27336400    0.01284500
 H                 -2.50744400    0.56198000   -1.37947600
 H                 -3.33251200   -1.21324400    0.19769500
 H                 -2.33183900   -0.54248400    1.47319700
 H                  3.19133800   -1.01805500   -0.85002200

 1 2 1.0 6 2.0 11 1.0
 2 3 1.0 14 1.0 23 1.0
 3 4 2.0 13 1.0
 4 5 1.5 12 1.0
 5 6 1.5 10 1.0
 6 7 1.0
 7 8 1.0 16 1.0 17 1.0
 8 9 1.0 21 1.0 22 1.0
 9 10 1.0 19 1.0 20 1.0
 10 15 1.0 18 1.0
 11
 12
 13
 14
 15
 16
 17
 18
 19
 20
 21
 22
 23

