%chk=e6_03_tetralin_a
# FREQ APFd/6-311+G(2d,p) Geom=Connectivity Int(UltraFine,ACC2E=12)

1-deuterotetralin cation  (deuterium pseudoaxial)

1 1
 C                 -1.39065176   -1.37064443    0.02478190
 C                 -2.62070749   -0.57663384    0.03911798
 C                 -2.55915759    0.77786559   -0.00494769
 C                 -1.29388631    1.39839575   -0.05233971
 C                 -0.07073722    0.71899244   -0.03837926
 C                 -0.09951641   -0.66502171    0.01831326
 C                  1.14571796   -1.47486576    0.08515584
 C                  2.39715133   -0.70725710   -0.33089612
 C                  2.42385007    0.65822015    0.34427408
 C                  1.22153137    1.49130351   -0.08777542
 H                 -1.40859688   -2.12912599    0.82555309
 H                 -1.26355702    2.48563312   -0.09661306
 H                 -3.45675741    1.38529724   -0.00767678
 H                 -3.57136020   -1.10042068    0.06428388
 H                  1.12703549    2.39055784    0.52821190
 H                  1.24348968   -1.80225286    1.13330244
 H                  1.01815884   -2.40161112   -0.48551140
 H                  1.36299421    1.84464329   -1.11724901
 H                  3.34531788    1.19204355    0.10293097
 H                  2.41396267    0.52990019    1.43294380
 H                  3.28262529   -1.29090079   -0.07100564
 H                  2.40934840   -0.58670932   -1.41982256
 H(Iso=2)          -1.42413465   -2.01864053   -0.87363986

 1 2 2.0 6 1.5 11 1.0 23 1.0
 2 3 1.5 14 1.0
 3 4 2.0 13 1.0
 4 5 1.5 12 1.0
 5 6 1.5 10 1.0
 6 7 1.0
 7 8 1.0 16 1.0 17 1.0
 8 9 1.0 21 1.0 22 1.0
 9 10 1.0 19 1.0 20 1.0
 10 15 1.0 18 1.0
 11
 12
 13
 14
 15
 16
 17
 18
 19
 20
 21
 22
 23

