%chk=e6_03_tetralin
# OPT=Tight APFd/6-311+g(2d,p) Geom=Connectivity Int(UltraFine,acc2e=12)

Tetralin Opt

0 1
 C                 -1.27375809   -1.41714852    0.26667464
 C                 -2.32945219   -1.09260156    1.12861703
 C                 -2.27858536    0.08518863    1.88521760
 C                 -1.19891249    0.96576239    1.73803801
 C                 -0.16867421    0.66864622    0.83536900
 C                 -0.16718375   -0.56362913    0.15953848
 C                  1.04667745   -1.00665734   -0.68055479
 C                  1.86643923    0.20415159   -1.16255945
 C                  2.22535233    1.05377824    0.06506851
 C                  0.93405338    1.71488947    0.58069931
 H                 -1.30849316   -2.32157401   -0.30403370
 H                 -1.16500629    1.86997205    2.30913805
 H                 -3.06618579    0.31430763    2.57230569
 H                 -3.17242516   -1.74630449    1.21209789
 H                  1.14018582    2.25358115    1.48193218
 H                  1.67536603   -1.60965745   -0.05923238
 H                  0.71739939   -1.57741483   -1.52359207
 H                  0.58117289    2.38970705   -0.17096323
 H                  2.91915217    1.82366581   -0.20104223
 H                  2.66395443    0.42587897    0.81224366
 H                  2.75269350   -0.15430673   -1.64314347
 H                  1.30702390    0.80059238   -1.85264123

 1 6 1.5 2 1.5 11 1.0
 2 3 1.5 14 1.0
 3 4 1.5 13 1.0
 4 5 1.5 12 1.0
 5 6 1.5 10 1.0
 6 7 1.0
 7 16 1.0 17 1.0 8 1.0
 8 21 1.0 22 1.0 9 1.0
 9 19 1.0 20 1.0 10 1.0
 10 15 1.0 18 1.0
 11
 12
 13
 14
 15
 16
 17
 18
 19
 20
 21
 22

--link1--
%chk=e6_03_tetralin
# FREQ NMR APFd/6-311+g(2d,p) Geom=Checkpoint Int(UltraFine,acc2e=12) Guess=Read

Tetralin Freq and NMR

0 1

