%Chk=e6_04_twisted_rigidscan
# scan apfd/6-311+g(2d,p)  int=(ultrafine,acc2e=12)

CH2-CH-CH2 twist about one C-C bond

1 1
 C              
 H                  1    1.08388809
 C                  1    1.37813400    2  120.71260584
 C                  1    1.37813400    3  118.57478832    2  180.00000000    0
 H                  3    1.08628324    1  121.57041012    2    D    0
 H                  4    1.08628324    1  121.57041012    3  180.00000000    0
 H                  3    1.08634592    1  121.15321683    4    D    0
 H                  4    1.08634592    1  121.15321683    3    0.00000000    0

D 0.0 18 10.0

