%Chk=e6_08_h2co
# OPT FREQ APFd 6-311+G(2d,p) Geom=Connectivity INT(Ultrafine,ACC2E=12)

Formaldehyde

0 1
 C                  0.00000000    0.00000000   -0.52703800
 H                  0.00000000    0.94067800   -1.11171200
 H                  0.00000000   -0.94067800   -1.11171200
 O                  0.00000000    0.00000000    0.67320700

 1 2 1.0 3 1.0 4 2.0
 2
 3
 4

