%chk=e6_11_CH3Cl--F
# OPT=CalcFC FREQ APFd 6-311+G(2d,p) SCRF(SMD,Solvent=Acetonitrile) Int(Ultrafine,Acc2E=12) Geom=Connectivity

[CH3Cl..F]- reactant anion complex

-1 1
 H                  0.00000000    1.02749070   -0.52216906
 H                 -0.88983304   -0.51374535   -0.52216906
 H                  0.88983304   -0.51374535   -0.52216906
 C                  0.00000000    0.00000000   -0.19986067
 F                  0.00000000    0.00000000   -2.79086133
 Cl                 0.00000000    0.00000000    1.64020136

 1 4 1.0
 2 4 1.0
 3 4 1.0
 4 6 1.0
 5
 6

