%chk=e6_11_CH3F--Cl
# OPT=CalcFC FREQ APFd 6-311+G(2d,p) SCRF(SMD,Solvent=Acetonitrile) Int(Ultrafine,Acc2E=12) Geom=Connectivity

[CH3F..Cl]- product anion complex

-1 1
 H                  0.00000000    1.03386170   -0.67799920
 H                 -0.89535050   -0.51693085   -0.67799920
 H                  0.89535050   -0.51693085   -0.67799920
 C                  0.00000000    0.00000000   -1.00291307
 F                  0.00000000    0.00000000   -2.42880293
 Cl                 0.00000000    0.00000000    1.75945308

 1 4 1.0
 2 4 1.0
 3 4 1.0
 4 5 1.0
 5
 6

