%Chk=x6_05_mecl
# opt freq APFD/6-311+g(2d,p) geom=connectivity Int=(UltraFine,Acc2E=12)

MethylChloride Opt Freq

0 1
 C                  0.00000000    0.00000000    0.00000000
 Cl                 0.00000000    0.00000000    1.78480000
 H                  1.02251905    0.00000000   -0.34112507
 H                 -0.51125953   -0.88552747   -0.34112507
 H                 -0.51125953    0.88552747   -0.34112507

 1 2 1.0 3 1.0 4 1.0 5 1.0
 2
 3
 4
 5

