%chk=x6_04_SiH4Si+
# OPT FREQ APFd 6-311+G(2d,p) Geom=Connectivity Int(Ultrafine,Acc2E=12)

[SiH4...Si]+

1 2
 Si                 0.00000000    0.00000000    1.37131126
 Si                 0.00000000    0.00000000   -1.72718379
 H                  0.00000000   -0.94590209    0.25527254
 H                  0.00000000    0.94590209    0.25527254
 H                 -1.34561636    0.00000000    1.94398250
 H                  1.34561636    0.00000000    1.94398250

 1 3 1.0 4 1.0 6 1.0 5 1.0
 2 3 0.5 4 0.5
 3
 4
 5
 6

