%chk=x6_05_AcetylCl
# OPT FREQ APFd 6-311+G(2d,p) Geom=Connectivity Int(Ultrafine,Acc2E=12)

acetyl chloride

0 1
 C                 -0.24562407    0.45559304    0.00000000
 C                  0.96818783    1.34128011    0.00000000
 Cl                 0.16376866   -1.28077836    0.00000000
 O                 -1.36300261    0.79334702    0.00000000
 H                  0.64324595    2.37203190    0.00000000
 H                  1.57066258    1.13659258    0.87642100
 H                  1.57066258    1.13659258   -0.87642100

 1 2 1.0 3 1.0 4 2.0
 2 5 1.0 6 1.0 7 1.0
 3
 4
 5
 6
 7

