%chk=x6_09_TS_Cl
# opt=(calcfc,qst3) freq apfd/6-31g(d) scrf=(smd,solvent=dmso)
geom=connectivity int=(ultrafine,acc2e=12)

Ethyl chloride + acetate --> ethyl acetate + chlorine TS in DMSO

-1 1
 C                 -1.23474000    0.12896400   -0.20568900
 O                  1.29940800    0.39675000   -0.82488500
 C                  2.01180100   -0.21463400   -0.01802600
 C                  3.51098600   -0.05946500   -0.26735400
 H                  3.70808600   -0.05134300   -1.34329500
 H                  3.83695600    0.90917700    0.12907100
 H                  4.11640100   -0.83598000    0.20469700
 O                  1.64072700   -0.91734200    0.97079200
 H                 -0.97459300    0.33778500   -1.29780900
 C                 -0.99510300    1.35413700    0.67340300
 H                 -1.22084700    1.12932600    1.71995400
 H                  0.06698300    1.67308700    0.59332700
 H                 -1.64077700    2.19191900    0.36654500
 H                 -0.52870500   -0.72798600    0.11562700
 Cl                -2.97483800   -0.45678000   -0.15702200

 1 9 1.0 10 1.0 14 1.0
 2 3 2.0
 3 4 1.0 8 2.0
 4 5 1.0 6 1.0 7 1.0
 5
 6
 7
 8
 9
 10 11 1.0 12 1.0 13 1.0
 11
 12
 13
 14
 15

Ethyl chloride + acetate --> ethyl acetate + chlorine TS in DMSO

-1 1
 C                 -0.50724000    0.25506400   -0.31238900
 O                  1.10540800    0.39675000   -0.74728500
 C                  1.95360100   -0.23403400    0.03047400
 C                  3.42368600   -0.03036500   -0.31585400
 H                  3.60138600   -0.00284300   -1.39179500
 H                  3.74965600    0.92857700    0.09997100
 H                  4.00970100   -0.82628000    0.14649700
 O                  1.64072700   -0.91734200    0.99019200
 H                 -0.96489300    0.31838500   -1.34630900
 C                 -0.86900300    1.37353700    0.65400300
 H                 -1.21114700    0.98382600    1.62295400
 H                  0.03788300    1.99318700    0.83582700
 H                 -1.65047700    2.02701900    0.25014500
 H                 -0.56750500   -0.80558600    0.09622700
 Cl                -3.12033800   -0.50528000   -0.15702200

 1 9 1.0 10 1.0 14 1.0
 2 3 2.0
 3 4 1.0 8 2.0
 4 5 1.0 6 1.0 7 1.0
 5
 6
 7
 8
 9
 10 11 1.0 12 1.0 13 1.0
 11
 12
 13
 14
 15

Ethyl chloride + acetate --> ethyl acetate + chlorine TS in DMSO

-1 1
 C                 -0.85974000    0.19396400   -0.26068900
 O                  1.19940800    0.39675000   -0.78488500
 C                  1.98180100   -0.22463400    0.00697400
 C                  3.46598600   -0.04446500   -0.29235400
 H                  3.65308600   -0.02634300   -1.36829500
 H                  3.79195600    0.91917700    0.11407100
 H                  4.06140100   -0.83098000    0.17469700
 O                  1.64072700   -0.91734200    0.98079200
 H                 -0.96959300    0.32778500   -1.32280900
 C                 -0.93010300    1.36413700    0.66340300
 H                 -1.21584700    1.05432600    1.66995400
 H                  0.05198300    1.83808700    0.71832700
 H                 -1.64577700    2.10691900    0.30654500
 H                 -0.54870500   -0.76798600    0.10562700
 Cl                -3.04983800   -0.48178000   -0.15702200

 1 9 1.0 10 1.0 14 1.0
 2 3 2.0
 3 4 1.0 8 2.0
 4 5 1.0 6 1.0 7 1.0
 5
 6
 7
 8
 9
 10 11 1.0 12 1.0 13 1.0
 11
 12
 13
 14
 15

