%chk=x6_04_mig1TS
# opt=qst2 freq apfd/6-311+g(2d,p) geom=connectivity int=(ultrafine,acc2e=12)

Silane + Si+ PES: TS H migration reaction 1 ([H3Si...SiH]+ -> [H2Si-SiH2]+?)

1 2
 Si                 0.04423900   -1.12286100    0.00000000
 Si                 0.04423900    1.28483200    0.00000000
 H                 -0.71631500   -1.36760600   -1.24895100
 H                 -1.25935900    2.01840200    0.00000000
 H                 -0.71631500   -1.36760600    1.24895100
 H                  1.45330000   -1.55078500    0.00000000

 1 2 1.0 5 1.0 3 1.0 6 1.0
 2 4 1.0 3 0.5
 3
 4
 5
 6

Silane + Si+ PES: TS H migration reaction 1 ([H3Si...SiH]+ -> [H2Si-SiH2]+?)

1 2
 Si                 0.00000000    1.08456500    0.00000000
 Si                 0.00000000   -1.08456500    0.00000000
 H                  0.00000000   -1.80063600   -1.29368666
 H                  0.00000000   -1.80063600    1.29368666
 H                  0.00000000    1.80063600    1.29368666
 H                  0.00000000    1.80063600   -1.29368666

 1 2 1.0 6 1.0 5 1.0 3 0.5
 2 4 1.0 3 1.0
 3
 4
 5
 6

