%chk=x6_03_ts4_qst2
# OPT=QST2 FREQ APFd 6-311+G(2d,p) Geom=Connectivity Int(Ultrafine,Acc2E=12)

cis Hydroxycarbene --> CO + H2

0 1
 C                  0.12193000    0.73759900    0.00000000
 H                 -0.94993700    1.06924100    0.00000000
 O                  0.12193000   -0.56375800    0.00000000
 H                 -0.75708500   -0.98477000    0.00000000

 1 2 1.0 3 1.5
 2
 3 4 1.0
 4

cis Hydroxycarbene --> CO + H2

0 1
 C                  0.12193000    0.73759900    0.00000000
 H                 -1.72183315    1.30807024    0.00000000
 O                  0.12193000   -0.56375800    0.00000000
 H                 -1.63863656    0.42196736    0.00000000

 1 3 1.5
 2 4 1.0
 3
 4

