%Chk=x6_01_benz
# 6-311+g(2d,p) nosymm geom=connectivity apfd int=(ultrafine,acc2e=12)

Benzene

0 1
 C                  1.21364800   -0.70070000    0.00000000
 C                  1.21364800    0.70070000    0.00000000
 C                 -0.00000000    1.40140000    0.00000000
 C                 -1.21364800    0.70070000    0.00000000
 C                 -1.21364800   -0.70070000    0.00000000
 C                 -0.00000000   -1.40140000    0.00000000
 H                  2.14029518   -1.23570000    0.00000000
 H                  2.14029518    1.23570000    0.00000000
 H                 -0.00000000    2.47140000    0.00000000
 H                 -2.14029518    1.23570000    0.00000000
 H                 -2.14029518   -1.23570000    0.00000000
 H                  0.00000000   -2.47140000    0.00000000

 1 2 1.5 6 1.5 7 1.0
 2 3 1.5 8 1.0
 3 4 1.5 9 1.0
 4 5 1.5 10 1.0
 5 6 1.5 11 1.0
 6 12 1.0
 7
 8
 9
 10
 11
 12

