%chk=x6_08_hy_0wat_smd
# OPT FREQ APFd 6-311+G(2d,p) SCRF(SMD,Solvent=Water) Int(Ultrafine,Acc2E=12) geom=connectivity

2-hydroxypyridine

0 1
 N                 -1.18803200    0.30468100    0.00000000
 C                  0.00000000    0.90378200    0.00000000
 C                  1.22878400    0.22595200    0.00000000
 C                  1.19662300   -1.16426200    0.00000000
 C                 -0.04308000   -1.82054100    0.00000000
 C                 -1.19909800   -1.04418000    0.00000000
 O                  0.01767200    2.26066000    0.00000000
 H                 -0.91133500    2.52989500    0.00000000
 H                  2.15650300    0.78786200    0.00000000
 H                  2.12380700   -1.73063300    0.00000000
 H                 -0.11009400   -2.90338000    0.00000000
 H                 -2.18341200   -1.50629600    0.00000000

 1 2 1.5 6 1.5
 2 3 1.5 7 1.0
 3 4 1.5 9 1.0
 4 5 1.5 10 1.0
 5 6 1.5 11 1.0
 6 12 1.0
 7 8 1.0
 8
 9
 10
 11
 12

