%chk=x6_04_mig2TS
# OPT=QST3 FREQ APFd 6-311+G(2d,p) Geom=Connectivity Int(Ultrafine,Acc2E=12)

Silane + Si+ PES: TS H migration reaction 2 ([H2Si...H...SiH]+ -> [H2Si-SiH2]+)
[H migration(II) TS from bridged structure]

1 2
 Si                 1.02714800   -0.00098300   -0.06951800
 Si                -1.21930900   -0.09608800   -0.03576100
 H                  0.06085200   -0.05343800    1.24387500
 H                 -1.14122400    1.42525100    0.03957300
 H                  1.89686200    1.19904800    0.07955800
 H                  1.87376200   -1.21186800    0.11089400

 1 2 1.0 5 1.0 6 1.0
 2 4 1.0
 3
 4
 5
 6

Silane + Si+ PES: TS H migration reaction 2 ([H2Si...H...SiH]+ -> [H2Si-SiH2]+)
[H migration(II) TS from bridged structure]

1 2
 Si                 0.00000000    0.00000000    1.12073800
 Si                 0.00000000    0.00000000   -1.12073800
 H                  0.00000000   -1.27682300   -1.85472600
 H                  0.00000000    1.27682300   -1.85472600
 H                  0.00000000    1.27682300    1.85472600
 H                  0.00000000   -1.27682300    1.85472600

 1 2 1.0 5 1.0 6 1.0
 2 3 1.0 4 1.0
 3
 4
 5
 6

Silane + Si+ PES: TS H migration reaction 2 ([H2Si...H...SiH]+ -> [H2Si-SiH2]+)
[H migration(II) TS from bridged structure]

1 2
 Si                 1.02714800   -0.00098300   -0.06951800
 Si                -1.21930900   -0.09608800   -0.03576100
 H                 -0.45331698   -1.20236033    0.36253124
 H                 -1.14122400    1.42525100    0.03957300
 H                  1.89686200    1.19904800    0.07955800
 H                  1.87376200   -1.21186800    0.11089400

 1 2 1.0 5 1.0 6 1.0
 2 4 1.0
 3
 4
 5
 6

