%chk=x6_04_insertTS
# opt=qst3 freq APFd 6-311+g(2d,p) geom=connectivity int(ultrafine,acc2e=12)

[SiH4...Si]+ --> [SiH3-SiH]+ Insertion Transition Structure

1 2
 Si                 0.00000000    0.00000000   -1.14524700
 Si                 0.00000000    0.00000000    1.41890600
 H                  0.00000000    1.10254900   -0.03867000
 H                  0.00000000   -1.10254900   -0.03867000
 H                 -1.27812300    0.00000000   -1.87694500
 H                  1.27812300    0.00000000   -1.87694500

 1 6 1.0 5 1.0 3 1.0 4 1.0
 2 3 0.5 4 0.5
 3
 4
 5
 6

[SiH4...Si]+ --> [SiH3-SiH]+ Insertion Transition Structure

1 2
 Si                -0.03757793   -0.53107310   -1.03324004
 Si                -0.22211107    0.77856043    0.89715047
 H                  1.13297311   -0.09739578   -1.80953525
 H                  0.87000794    0.79558083    1.88096264
 H                  0.12120412   -1.94253119   -0.65445999
 H                 -1.25098635   -0.37601084   -1.84840609

 1 3 1.0 6 1.0 5 1.0 2 1.0
 2 4 1.0
 3
 4
 5
 6

[SiH4...Si]+ --> [SiH3-SiH]+ Insertion Transition Structure

1 2
 Si                 0.32579797   -0.59931974   -0.67520350
 Si                -1.18758147    0.75648664    0.48301247
 H                 -0.16921926    0.86300688   -1.28843690
 H                  0.07885071    0.74023186    1.13778458
 H                  1.52851614   -1.10623274   -1.35152311
 H                  0.03714548   -2.02704248   -0.87316191

 1 5 1.0 3 1.0 6 1.0 2 1.0 4 0.5
 2 3 0.5 4 1.0
 3
 4
 5
 6

