%chk=x6_04_Si2H2+_H2
# OPT FREQ APFD 6-311+g(2d,p) Geom=Connectivity Int(UltraFine,Acc2E=12)

Si2H2+...H2 Opt Freq

1 2
 Si                -0.09745787   -1.10529853    0.00000000
 Si                 0.52944547    1.10133711    0.00000000
 H                 -2.96127937    1.48886800    0.00000000
 H                 -2.46220337    2.28346105    0.00000000
 H                 -1.49895377   -1.52119745    0.00000000
 H                  0.87461018   -2.19567178    0.00000000

 1 2 1.0 6 1.0 5 1.0
 2
 3 4 1.0
 4
 5
 6

