%chk=x6_02_H_scan
# OPT=ModRedundant APFd 6-311+G(2d,p) SCRF(SMD,Solvent=Chloroform) Geom=Connectivity Int(Ultrafine,Acc2E=12)

acetophenone relaxed scan of O-C(CH3)-C1-C2

0 1
 C                  0.62793694    0.08977405    0.00000000
 C                 -0.13368539    1.26612146    0.00000000
 C                 -1.53325954    1.19470180    0.00000000
 C                 -2.17121136   -0.05306527    0.00000000
 C                 -1.40958904   -1.22941267    0.00000000
 C                 -0.01001489   -1.15799300    0.00000000
 C                  2.16593051    0.16825718    0.00000000
 C                  3.00312342   -1.12404922    0.00000000
 H                  0.35340497    2.21881931    0.00000000
 H                 -2.11477509    2.09286916    0.00000000
 H                 -1.89667940   -2.18211051    0.00000000
 H                  0.57150065   -2.05616035    0.00000000
 O                  2.73813116    1.28903522    0.00000000
 H                  2.78998331   -1.67506515    0.90767073
 H                  2.78998331   -1.67506515   -0.90767073
 H                  4.04122142   -0.86478620    0.00000000
 H                 -3.23982093   -0.10759595    0.00000000

 1 2 1.5 6 1.5 7 1.0
 2 3 1.5 9 1.0
 3 4 1.5 10 1.0
 4 5 1.5 17 1.0
 5 6 1.5 11 1.0
 6 12 1.0
 7 13 2.0 8 1.0
 8 14 1.0 15 1.0 16 1.0
 9
 10
 11
 12
 13
 14
 15
 16
 17

D 13 7 1 2 S 18 10.000000

