%chk=x6_05_Acetone
# OPT FREQ APFd 6-311+G(2d,p) Geom=Connectivity Int(Ultrafine,Acc2E=12)

Acetone (C2 symmetry)

0 1
 C                  0.00000000    0.00000000    0.15196250
 O                  0.00000000    0.00000000    1.41036250
 C                  0.00000000    1.33367912   -0.61803750
 C                 -0.00000000   -1.33367912   -0.61803750
 H                  0.50440284    2.07938719   -0.03976658
 H                 -0.50440284   -2.07938719   -0.03976658
 H                 -1.00880567    1.64256152   -0.79637083
 H                  0.50440284    1.20573585   -1.55297509
 H                  1.00880567   -1.64256152   -0.79637083
 H                 -0.50440284   -1.20573585   -1.55297509

 1 2 2.0 3 1.0 4 1.0
 2
 3 5 1.0 7 1.0 8 1.0
 4 6 1.0 9 1.0 10 1.0
 5
 6
 7
 8
 9
 10

