%chk=x6_02_F
# OPT FREQ APFd 6-311+g(2d,p) SCRF(SMD,Solvent=Chloroform) Geom=Connectivity Int(Ultrafine,Acc2E=12) Temp=140

4'-fluoroacetophenone

0 1
 C         -0.64176561    0.06608572    0.00000000
 C          0.01549557   -1.16594849    0.00000000
 C          1.40080190   -1.23159800    0.00000000
 C          2.11253637   -0.04589338    0.00000000
 C          1.49813695    1.19594027    0.00000000
 C          0.11570032    1.24054131    0.00000000
 C         -2.12703598    0.17672475    0.00000000
 C         -2.94830043   -1.08197384    0.00000000
 H         -0.54868624   -2.09139242    0.00000000
 H          1.92786870   -2.17906629    0.00000000
 F          3.45784489   -0.10027553    0.00000000
 H          2.10074203    2.09747086    0.00000000
 H         -0.40098926    2.19379575    0.00000000
 O         -2.66248041    1.27020016    0.00000000
 H         -2.72317210   -1.69039979   -0.88111914
 H         -2.72317210   -1.69039979    0.88111914
 H         -4.00636084   -0.82295163    0.00000000

 1 2 1.5 6 1.5 7 1.0
 2 3 1.5 9 1.0
 3 4 2.0 10 1.0
 4 5 2.0 11 1.0
 5 6 2.0 12 1.0
 6 13 1.0
 7 8 1.0 14 2.0
 8 15 1.0 16 1.0 17 1.0
 9
 10
 11
 12
 13
 14
 15
 16
 17

