%chk=x6_09_acetate
# OPT FREQ APFd 6-31+G(d) SCRF(SMD,Solvent=DMSO) Geom=Connectivity

acetate ion in DMSO (small basis set pre-opt)

-1 1
 C                  0.00000000   -0.14579355    0.00000000
 O                  0.00000000   -0.79644355    1.12695886
 O                  0.00000000   -0.79644355   -1.12695886
 C                  0.00000000    1.39420645    0.00000000
 H                 -0.50440284    1.75087312    0.87365134
 H                  1.00880567    1.75087312    0.00000000
 H                 -0.50440284    1.75087312   -0.87365134

 1 2 1.5 3 1.5 4 1.0
 2
 3
 4 5 1.0 6 1.0 7 1.0
 5
 6
 7

--link1--
%chk=x6_09_acetate
# OPT=ReadFC FREQ APFd 6-311+G(2d,p) SCRF(SMD,Solvent=DMSO) Int(Ultrafine,Acc2E=12) Geom=Checkpoint Guess=Read

acetate ion in DMSO

-1 1

