%chk=x6_03_ts3_qst2
# OPT=QST2 FREQ APFd 6-311+G(2d,p) Geom=Connectivity Int(Ultrafine,Acc2E=12)

cis-trans HCOH TS

0 1
 C                 -0.01074200    0.73770700    0.00000000
 H                  1.07881500    0.97715100    0.00000000
 O                 -0.01074200   -0.56620200    0.00000000
 H                 -0.92843000   -0.87377700    0.00000000

 1 2 1.0 3 1.5
 2
 3 4 1.0
 4

cis-trans HCOH TS

0 1
 C                 -0.01074200    0.73770700    0.00000000
 H                 -1.10029900    0.97715100    0.00000000
 O                 -0.01074200   -0.56620200    0.00000000
 H                 -0.92843000   -0.87377700    0.00000000

 1 2 1.0 3 1.5
 2
 3 4 1.0
 4

