%Chk=x6_06_SiFH3
# opt freq APFD/6-311+g(2d,p) geom=connectivity Int=(UltraFine,Acc2E=12)

SiFH3 Opt Freq

0 1
 Si                -2.31249982   -0.60416679    0.00000001
 H                 -1.82249129    0.08879187   -1.20024994
 F                 -1.72915636    0.22078391    1.42886906
 H                 -3.78249982   -0.60414872   -0.00000001
 H                 -1.82251686   -1.99010210   -0.00000003

 1 2 1.0 3 1.0 4 1.0 5 1.0
 2
 3
 4
 5

