%chk=x6_08_ts_0wat_smd
# OPT(TS,CalcFC) FREQ APFd 6-311+G(2d,p) SCRF(SMD,Solvent=Water) Int(Ultrafine,Acc2E=12) geom=connectivity

TS for the keto-enol equilibrium in 2-pyridone

0 1
 N                 -1.11190300    0.19732100    0.00000000
 C                  0.00000000    0.98438800    0.00000000
 C                  1.28169100    0.38929700    0.00000000
 C                  1.32999900   -0.99953700    0.00000000
 C                  0.15592600   -1.78435100    0.00000000
 C                 -1.07845400   -1.14763500    0.00000000
 O                 -0.43146900    2.20079400    0.00000000
 H                 -1.55417400    1.39407100    0.00000000
 H                  2.17580300    1.00189900    0.00000000
 H                  2.29799300   -1.49429500    0.00000000
 H                  0.20726100   -2.86690900    0.00000000
 H                 -2.02678600   -1.67534000    0.00000000

 1 2 1.5 6 1.5 8 0.5
 2 3 1.5 7 1.5
 3 4 1.5 9 1.0
 4 5 1.5 10 1.0
 5 6 1.5 11 1.0
 6 12 1.0
 7 8 0.5
 8
 9
 10
 11
 12

