%chk=x6_04_insertIRC
# IRC(CalcFC,MaxPoints=40,Step=20,Recorrect=Never,phase=(1,2,4)) APFd 6-311+G(2d,p) Geom=Connectivity Int(Ultrafine,Acc2E=12)

[SiH4...Si]+ --> [SiH3-SiH]+ Insertion IRC

1 2
 Si                 0.30092054   -0.78512605   -0.78708026
 Si                -1.07784396    0.66778324    0.62755494
 H                 -0.40302807    0.52817689   -1.21350491
 H                  0.42645647    0.90367248    0.87031264
 H                  1.76876581   -0.73145998   -0.72109165
 H                 -0.40176121   -1.95591616   -1.34371913

 1 2 0.5 3 1.0 4 0.5 5 1.0 6 1.0
 2 3 0.0 4 1.0
 3
 4
 5
 6

