%chk=x6_07_BAC2_INT
# OPT FREQ APFd 6-31+G(d) SCRF(SMD,Solvent=Water) Geom=Connectivity

base catalyzed hydrolysis intermediate (BAC2 mech)

-1 1
 C                  0.93673570   -2.29294344   -0.26601074
 H                  0.14964614   -2.32186112   -0.99027159
 H                  1.86925052   -2.11493662   -0.75959932
 H                  0.97992222   -3.22856202    0.25134098
 C                  0.62694923    0.00861885   -0.02124552
 C                  0.35548931    1.14063317    0.98694747
 H                  1.14257888    1.16955085    1.71120832
 H                  0.31230280    2.07625175    0.46959575
 H                 -0.57702550    0.96262635    1.48053605
 H                  1.72479940    0.32704236   -1.62593597
 O                  0.68466578   -1.24178729    0.67016846
 O                 -0.33028409   -0.02654991   -0.90206855
 O                  1.87320735    0.24651582   -0.68090129
 H                  2.76797632   -0.85292736   -0.42749808
 O                  3.36448908   -1.58588864   -0.25855941
 H                  4.20119174   -1.42610996   -0.70127764

 1 2 1.0 3 1.0 4 1.0 11 1.0
 2
 3
 4
 5 6 1.0 11 1.0 12 1.5 13 1.0
 6 7 1.0 8 1.0 9 1.0
 7
 8
 9
 10 13 1.0
 11
 12
 13 14 0.5
 14 15 1.0
 15 16 1.0
 16

--link1--
%chk=x6_07_BAC2_INT
# OPT=ReadFC FREQ APFd 6-311+G(2d,p) SCRF(SMD,Solvent=water) Geom=Checkpoint Guess=Read INT(UltraFine,Acc2E=12)

base catalyzed hydrolysis intermediate (BAC2 mech)

-1 1

