%chk=x6_02_H
# OPT FREQ APFd 6-311+g(2d,p) SCRF(SMD,Solvent=Chloroform) Geom=Connectivity Int(Ultrafine,Acc2E=12) Temp=140

acetophenone

0 1
 C          0.20572573   -0.05873739    0.00000000
 C         -0.42373708    1.18751536    0.00000000
 C         -1.80982627    1.27285473    0.00000000
 C         -2.57763380    0.11443104    0.00000000
 C         -1.95764184   -1.13243529    0.00000000
 C         -0.57518151   -1.21717786    0.00000000
 C          1.69074391   -0.19974749    0.00000000
 C          2.53835212    1.04149291    0.00000000
 H          0.16296334    2.09933266    0.00000000
 H         -2.29157433    2.24540180    0.00000000
 H         -2.55682627   -2.03752279    0.00000000
 H         -0.07626731   -2.18019844    0.00000000
 O          2.20449265   -1.30340263    0.00000000
 H          2.32531823    1.65470002   -0.88071302
 H          2.32531823    1.65470002    0.88071302
 H          3.59087283    0.76058946    0.00000000
 H         -3.66124004    0.18188546    0.00000000

 1 2 1.5 6 1.5 7 1.0
 2 3 1.5 9 1.0
 3 4 1.5 10 1.0
 4 5 1.5 17 1.0
 5 6 2.0 11 1.0
 6 12 1.0
 7 8 1.0 13 2.0
 8 14 1.0 15 1.0 16 1.0
 9
 10
 11
 12
 13
 14
 15
 16
 17

