%chk=x6_08_ts+1h2o_smd
# OPT(TS,CalcFC) FREQ APFd 6-311+G(2d,p) SCRF(Solvent=Water) Int(Ultrafine,Acc2E=12) geom=connectivity

TS: 2-pyridone to 2-hydroxypyridine with 1 explicit water

0 1
 C                 -0.27701700    0.67367700   -0.00031500
 C                  0.99034300    1.31480500    0.00964700
 C                  2.14318100    0.55029500    0.00899300
 C                  2.06431400   -0.85827400    0.00178300
 C                  0.81016700   -1.43961200   -0.00479100
 N                 -0.31520000   -0.69163000   -0.00182500
 H                  3.11321500    1.04049700    0.01383600
 H                  1.01536000    2.39907000    0.01218200
 H                  2.95314000   -1.47842300   -0.00196200
 H                  0.66560200   -2.51604800   -0.01271800
 O                 -1.39811700    1.32240800   -0.00687900
 H                 -2.24509600    0.46137700   -0.02856300
 H                 -3.27211100   -0.86746800    0.66903500
 O                 -2.71357800   -0.65279300   -0.08412100
 H                 -1.51606900   -0.99986800   -0.00293000

 1 2 1.5 6 1.5 11 1.5
 2 3 2.0 8 1.0
 3 4 1.5 7 1.0
 4 5 2.0 9 1.0
 5 6 1.5 10 1.0
 6 15 0.5
 7
 8
 9
 10
 11 12 0.5
 12 14 0.5
 13 14 1.0
 14 15 0.5
 15

--link1--
%chk=x6_08_ts+1h2o_smd
# OPT(TS,RCFC) FREQ APFd 6-311+G(2d,p) SCRF(SMD,Solvent=Water) Int(Ultrafine,Acc2E=12) 
  Geom=AllCheck Guess=Read


