%Chk=x6_05_MeF
# opt freq APFD/6-311+g(2d,p) geom=connectivity Int=(UltraFine,Acc2E=12)

MethylFlouride Opt Freq

0 1
 C                  0.00000000    0.00000000    0.00000000
 F                  0.00000000    0.00000000    1.36468000
 H                  1.02239873    0.00000000   -0.35384806
 H                 -0.51119936   -0.88542327   -0.35384806
 H                 -0.51119936    0.88542327   -0.35384806

 1 2 1.0 3 1.0 4 1.0 5 1.0
 2
 3
 4
 5

