%chk=x6_04_SiH3SiH+
# OPT FREQ APFd 6-311+G(2d,p) Geom=Connectivity Int(Ultrafine,Acc2E=12)

[SiH3...SiH]+

1 2
 Si                 0.02015378    1.07445388    0.00000000
 Si                -0.11031138   -1.26190628    0.00000000
 H                  0.73936013    1.52505591    1.20024998
 H                  1.11978630   -2.06674147    0.00000000
 H                  0.73936013    1.52505591   -1.20024998
 H                 -1.33630010    1.64096328    0.00000000

 1 3 1.0 5 1.0 6 1.0 2 1.0
 2 4 1.0
 3
 4
 5
 6

