%chk=x6_04_SiH2SiH2+
# opt=tight freq APFd 6-311+g(2d,p) geom=connectivity int(ultrafine,acc2e=12)

[SiH2...SiH2]+

1 2
 Si                -3.21076133    2.41703090    0.06742413
 Si                -5.17983851    1.15999032   -0.06742413
 H                 -5.11052796   -0.29956805   -0.22800248
 H                 -6.48613343    1.82986935    0.00844185
 H                 -3.28007188    3.87658928    0.22800248
 H                 -1.90446641    1.74715187   -0.00844185

 1 2 1.0 5 1.0 6 1.0
 2 3 1.0 4 1.0
 3
 4
 5
 6

