%chk=x6_08_hy+1h2o_qb3_smd
# CBS-QB3 SCRF(SMD,Solvent=Water) Geom=Connectivity

2-hydroxypyridine with 1 explicit water

0 1
 C                 -0.14103400    0.64727600    0.00647100
 C                  1.12555000    1.26031900    0.00258700
 C                  2.25184400    0.44833100   -0.00066900
 C                  2.09113200   -0.94577000   -0.00250200
 C                  0.79725500   -1.45474800    0.00186600
 N                 -0.30959700   -0.68086900    0.00818000
 H                  3.24342500    0.89247000   -0.00442500
 H                  1.18942900    2.34309000    0.00103900
 H                  2.94352200   -1.61660500   -0.00731200
 H                  0.62023600   -2.52776300   -0.00024200
 O                 -1.22176300    1.44809500    0.00986200
 H                 -2.02551300    0.88890800   -0.01131400
 H                 -3.67113100   -0.93801800    0.59064100
 O                 -3.10552700   -0.56774400   -0.09112100
 H                 -2.26295500   -1.05125100   -0.02209600

 1 2 1.5 6 1.5 11 1.0
 2 3 1.5 8 1.0
 3 4 1.5 7 1.0
 4 5 1.5 9 1.0
 5 6 1.5 10 1.0
 6 15 0.5
 7
 8
 9
 10
 11 12 1.0
 12 14 0.5
 13 14 1.0
 14 15 1.0
 15

