%chk=x6_07_BAC2_TS2
# OPT(QST3,calcfc) FREQ APFd 6-31+G(d) SCRF(Solvent=water) Geom=Connectivity

TS2 for the BAC2 mechanism: hydrolysis of methyl acetate with one water explicit

-1 1
 C                 -0.53537315   -0.24347633   -0.06461925
 O                 -1.24580957    0.65480003   -0.58610774
 O                  0.66001289    0.33932887    0.46101400
 C                  0.64962280    1.74863426    0.21883561
 H                 -0.20113188    2.18656006    0.69772751
 H                  1.54407250    2.18471927    0.61214160
 H                  0.59815339    1.92913867   -0.83457270
 C                 -1.31952156   -0.92169197    1.07412340
 H                 -0.71544736   -1.68548385    1.51753780
 H                 -1.57397645   -0.19304283    1.81521930
 H                 -2.21397126   -1.35777698    0.68081740
 O                 -0.19530727   -1.21727845   -1.05505583
 H                  0.34666584   -1.90254967   -0.65722609
 O                  2.56824819   -0.64293297   -0.61313669
 H                  2.57530012   -1.58901990   -0.45044129
 H                  1.80495377   -0.25002921   -0.18347605

 1 2 2.0 8 1.0 12 1.0 3 1.0
 2
 3 4 1.0 16 0.5
 4 5 1.0 6 1.0 7 1.0
 5
 6
 7
 8 9 1.0 10 1.0 11 1.0
 9
 10
 11
 12 13 1.0
 13
 14 15 1.0 16 1.0
 15
 16

TS2 for the BAC2 mechanism: hydrolysis of methyl acetate with one water explicit

-1 1
 C                 -1.57323972   -1.49851720   -0.66692947
 O                 -2.65359580   -1.20345899   -1.24089160
 O                  0.63224272    1.30821069    0.60085416
 C                  1.69968383    2.22088284    0.87016692
 H                  1.37399990    2.95072601    1.58168577
 H                  2.53612242    1.68427051    1.26692940
 H                  1.98771630    2.71052936   -0.03658219
 C                 -1.48414550   -1.46657876    0.87019354
 H                 -0.48465199   -1.22270397    1.16472993
 H                 -2.15839067   -0.72816279    1.25128755
 H                 -1.74739652   -2.42664959    1.26262372
 O                 -0.42836280   -1.86338471   -1.44209362
 H                  0.64587749   -0.94251427   -1.17444037
 O                  1.36206445   -0.32830796   -0.99578612
 H                  2.11427674   -0.80823184   -0.64126124
 H                  0.92429015    0.65378967   -0.03770538

 1 2 2.0 8 1.0 12 1.0
 2
 3 4 1.0 16 1.0
 4 5 1.0 6 1.0 7 1.0
 5
 6
 7
 8 9 1.0 10 1.0 11 1.0
 9
 10
 11
 12 13 0.5
 13 14 1.0
 14 15 1.0 16 0.5
 15
 16

TS2 for the BAC2 mechanism: hydrolysis of methyl acetate with one water explicit

-1 1
 C                 -0.81636145   -0.38539551   -0.16254602
 O                 -1.68132293    0.38911735   -0.64787275
 O                  0.88390815    0.63772693    0.62445382
 C                  0.96913399    2.02639555    0.29394512
 H                  0.15839469    2.55266780    0.75289971
 H                  1.89770587    2.42138555    0.64980626
 H                  0.91507178    2.14420703   -0.76817434
 C                 -1.47034585   -1.20866402    0.96267989
 H                 -0.74900457   -1.88088368    1.37823673
 H                 -1.82523797   -0.54928305    1.72698894
 H                 -2.29118676   -1.76783657    0.56462682
 O                 -0.25391301   -1.22897075   -1.21938406
 H                  0.70075750   -1.26521192   -0.98929249
 O                  2.04540958   -0.95584731   -0.52080198
 H                  2.46133952   -1.66156924   -0.02024346
 H                  1.80214244   -0.22793914    0.00745881

 1 2 2.0 8 1.0 12 1.0 3 0.5
 2
 3 4 1.0 16 0.5
 4 5 1.0 6 1.0 7 1.0
 5
 6
 7
 8 9 1.0 10 1.0 11 1.0
 9
 10
 11
 12 13 1.0
 13 14 0.5
 14 15 1.0 16 1.0
 15
 16

--link1--
%chk=x6_07_BAC2_TS2
# OPT(TS,RCFC) FREQ APFd 6-311+G(2d,p) SCRF(Solvent=water) Geom=Checkpoint Guess=Read INT(Grid=UltraFine,Acc2E=12)

TS2 for the BAC2 mechanism: hydrolysis of methyl acetate with one water explicit

-1 1

--link1--
%chk=x6_07_BAC2_TS2
# OPT(RCFC) APFd/6-311+G(2d,p) SCRF(SMD,Solvent=water) Geom=(Checkpoint,ModRedundant) Guess=Read INT(Grid=UltraFine,Acc2E=12)

TS2 for the BAC2 mechanism: hydrolysis of methyl acetate with one water explicit

-1 1

B 1 3 F
B 3 16 F
B 16 14 F
B 14 13 F
B 13 12 F

--link1--
%chk=x6_07_BAC2_TS2
# OPT(TS,CalcFC) FREQ APFd/6-311+G(2d,p) SCRF(SMD,Solvent=water) Geom=(Checkpoint,ModRedundant) Guess=Read INT(Grid=UltraFine,Acc2E=12)

TS2 for the BAC2 mechanism: hydrolysis of methyl acetate with one water explicit

-1 1

B 1 3 A
B 3 16 A
B 16 14 A
B 14 13 A
B 13 12 A


