%chk=x6_04_mig3TS
# opt=qst2 freq apfd/6-311+g(2d,p) geom=connectivity int=(ultrafine,acc2e=12)

Silane + Si+ PES: TS H migration reaction 3 ([H2Si...H...SiH]+ -> [H3Si-SiH]+)
[H migration(I) TS from bridged structure]

1 2
 Si                -1.05207000    0.01610000   -0.03463900
 Si                 1.17412600   -0.11811600   -0.05845400
 H                 -0.10026800    0.17841400    1.26844600
 H                  1.89727600    1.16366100    0.18115500
 H                 -1.69813500    1.31959600   -0.27669500
 H                 -1.80766400   -1.23344200    0.13040000

 1 2 1.0 5 1.0 6 1.0
 2 4 1.0
 3
 4
 5
 6

Silane + Si+ PES: TS H migration reaction 3 ([H2Si...H...SiH]+ -> [H3Si-SiH]+)
[H migration(I) TS from bridged structure]

1 2
 Si                 0.58158763    1.79626219    1.71870069
 Si                 0.58158763    4.20395519    1.71870069
 H                 -0.17896637    1.55151719    2.96765169
 H                 -0.72201037    4.93752519    1.71870069
 H                 -0.17896637    1.55151719    0.46974969
 H                  1.99064861    1.36833819    1.71894662

 1 2 1.0 3 1.0 5 1.0 6 1.0
 2 4 1.0
 3
 4
 5
 6

