%chk=x6_05_Methane
# OPT FREQ APFd 6-311+G(2d,p) Geom=Connectivity Int(Ultrafine,Acc2E=12)

Methane

0 1
 C                  0.00000000    0.00000000    0.00000000
 H                  0.00000000    0.00000000    1.07000000
 H                  0.00000000   -1.00880567   -0.35666667
 H                 -0.87365134    0.50440284   -0.35666667
 H                  0.87365134    0.50440284   -0.35666667

 1 2 1.0 3 1.0 4 1.0 5 1.0
 2
 3
 4
 5

