%chk=x6_08_py+1h2o_qb3_smd
# CBS-QB3 SCRF(SMD,Solvent=Water) geom=connectivity

2-pyridone with 1 explicit water

0 1
 C                 -0.21656000    0.74640500    0.01415500
 C                  1.12301200    1.28872000   -0.00201300
 C                  2.23028400    0.47486500   -0.01801000
 C                  2.09803900   -0.94119600   -0.00772200
 C                  0.83261000   -1.46783100    0.01404100
 N                 -0.25733900   -0.64968500    0.03419400
 H                  3.22123900    0.92171600   -0.03479300
 H                  1.20756700    2.37011700   -0.01231100
 H                  2.95966000   -1.59688200   -0.02327700
 H                  0.62600000   -2.53282700    0.02232400
 O                 -1.26564400    1.41239200    0.01638000
 H                 -2.74383900    0.27549400   -0.06068300
 H                 -3.87216100   -0.63650500    0.45272900
 O                 -3.08461900   -0.63844200   -0.09520000
 H                 -1.19930200   -1.05068600    0.04450400

 1 2 1.5 6 1.0 11 2.0
 2 3 2.0 8 1.0
 3 4 1.5 7 1.0
 4 5 2.0 9 1.0
 5 6 1.5 10 1.0
 6 15 1.0
 7
 8
 9
 10
 11 12 0.5
 12 14 1.0
 13 14 1.0
 14 15 0.5
 15

