%chk=e4_03_cocaine_conf01
# OPT FREQ=Raman APFd 6-311+G(2d,p) Geom=Connectivity Int(Ultrafine,Acc2E=12)

Methyl (1R,2R,3S,5S)-3-(benzoyloxy)-8-methyl-8-azabicyclo[3.2.1]octane-2-carboxylate
conformer 1: C1-C2-C10-O11=116 and C4-C3-O14-C15=160

0 1
 C                 -2.70536560   -0.08213831   -0.78542829
 C                 -1.18309446    0.14106663   -0.70400781
 C                 -0.56735784   -0.95859528    0.16462378
 C                 -1.32677793   -1.14638030    1.46835287
 C                 -2.82954042   -1.21159845    1.18410606
 C                 -3.17330705   -2.28891651    0.12357308
 C                 -3.06246271   -1.52633248   -1.21615048
 N                 -3.22546717    0.06309185    0.57405681
 C                 -4.65422609    0.30252558    0.61468838
 C                 -0.92376717    1.53004576   -0.15894036
 O                 -0.38007291    1.81158956    0.87566981
 O                 -1.39552896    2.44959747   -1.02225203
 C                 -1.24348546    3.80420910   -0.60300512
 O                  0.80708511   -0.69838436    0.47314007
 C                  1.69156323   -0.90890090   -0.51079192
 O                  1.40751620   -1.37818826   -1.58934499
 C                  3.05852316   -0.48917199   -0.11840249
 C                  4.12024694   -0.85898981   -0.94045788
 C                  5.41196378   -0.47500667   -0.61688316
 C                  5.64353264    0.28899346    0.52237227
 C                  4.58266727    0.66823674    1.33702429
 C                  3.28893834    0.27899090    1.02158453
 H                 -4.01316831   -1.53220545   -1.75369059
 H                 -2.31636366   -1.95060252   -1.89195852
 H                 -4.18511257   -2.67132193    0.27557892
 H                 -2.49976876   -3.14741932    0.18195521
 H                  3.91028392   -1.44611411   -1.82760208
 H                  6.24056015   -0.76792229   -1.25329769
 H                  6.65482481    0.59304140    0.77386617
 H                  4.76437243    1.27215794    2.22001777
 H                  2.45092788    0.57692984    1.64053453
 H                 -1.67814328    4.41019831   -1.39517683
 H                 -1.76631448    3.97110389    0.33993230
 H                 -0.18826573    4.04772716   -0.47029400
 H                 -0.75289336    0.08954949   -1.70903357
 H                 -0.59234231   -1.88184405   -0.41918097
 H                 -0.98759923   -2.06392881    1.95888039
 H                 -1.12207699   -0.30211350    2.12907404
 H                 -3.37188830   -1.35631354    2.12143512
 H                 -4.87319475    1.25209574    0.12161225
 H                 -4.97553578    0.38508364    1.65517111
 H                 -5.26114610   -0.48021904    0.13149354
 H                 -3.13918445    0.67533398   -1.43896417

 1 8 1.0 7 1.0 2 1.0 43 1.0
 2 3 1.0 10 1.0 35 1.0
 3 4 1.0 14 1.0 36 1.0
 4 5 1.0 37 1.0 38 1.0
 5 8 1.0 6 1.0 39 1.0
 6 7 1.0 25 1.0 26 1.0
 7 23 1.0 24 1.0
 8 9 1.0
 9 40 1.0 41 1.0 42 1.0
 10 12 1.5 11 2.0
 11
 12 13 1.0
 13 32 1.0 33 1.0 34 1.0
 14 15 1.5
 15 16 2.0 17 2.0
 16
 17 22 2.0 18 2.0
 18 19 2.0 27 1.0
 19 20 2.0 28 1.0
 20 21 2.0 29 1.0
 21 22 2.0 30 1.0
 22 31 1.0
 23
 24
 25
 26
 27
 28
 29
 30
 31
 32
 33
 34
 35
 36
 37
 38
 39
 40
 41
 42
 43

