%Chk=e4_07_methane
# opt freq APFD/6-311+g(2d,p) geom=connectivity Int=(UltraFine,Acc2E=12)

Methane Opt Freq NMR

0 1
  C                                                 0.000000000000      0.000000000000      0.000000000000
  H                                                 0.000000000000      0.000000000000      1.070000000000
  H                                                 1.008805608473      0.000000000000     -0.356666853398
  H                                                -0.504402893503     -0.873651439032     -0.356666348429
  H                                                -0.504402893503      0.873651439032     -0.356666348429

 1 2 1.0 3 1.0 4 1.0 5 1.0
 2
 3
 4
 5

--link1--
%Chk=e4_07_methane
# nmr APFD/6-311+g(2d,p) geom=allcheck guess=read Int=(UltraFine,Acc2E=12)


