%Chk=e4_06_benz-rad_std
# APFD/6-311+g(2d,p) opt freq geom=connectivity Int=(UltraFine,Acc2E=12)

Benzene Radical

0 2
 C                  1.20809735    0.69749533    0.00000000
 C                  0.00000000    1.39499067    0.00000000
 C                 -1.20809735    0.69749533    0.00000000
 C                 -1.20809735   -0.69749533    0.00000000
 C                  0.00000000   -1.39499067    0.00000000
 C                  1.20809735   -0.69749533    0.00000000
 H                  0.00000000    2.49460097    0.00000000
 H                 -2.16038781    1.24730049    0.00000000
 H                 -2.16038781   -1.24730049    0.00000000
 H                  0.00000000   -2.49460097    0.00000000
 H                  2.16038781   -1.24730049    0.00000000

 1 2 1.5 6 1.5
 2 3 1.5 7 1.0
 3 4 1.5 8 1.0
 4 5 1.5 9 1.0
 5 6 1.5 10 1.0
 6 11 1.0
 7
 8
 9
 10
 11

