%Chk=e4_05_nh4+
# APFD/6-311+G(2d,p) Opt Freq Int=(UltraFine,Acc2E=12)

PA: Ammonium, NH4+

     1     1
  N                                                 0.000000000000      0.000000000000      0.000000000000
  H                                                 0.592761007064      0.592761007064      0.592761007064
  H                                                -0.592761007064     -0.592761007064      0.592761007064
  H                                                 0.592761007064     -0.592761007064     -0.592761007064
  H                                                -0.592761007064      0.592761007064     -0.592761007064

