%Chk=e4_05_cl2
# APFD/6-311+G(2d,p) Opt Freq Int=(UltraFine,Acc2E=12)

Neutral: Molecular Chlorine (Cl2) Opt Freq

     0     1
  Cl                                                0.000000000000      0.000000000000      0.012560058819
  Cl                                                0.000000000000      0.000000000000      2.029752891181

