%Chk=e4_03_benzocaine_g1
# APFD 6-311+G(2d,p) OPT FREQ(Raman) Int=(UltraFine,Acc2E=12)

benzocaine gauche conformer 1

  0  1
 C                     1.18341   0.76495  -0.00005 
 C                    -0.23711   0.4086   -0.0011 
 C                    -0.592    -0.9481   -0.00308 
 C                    -1.92487  -1.32832  -0.00846 
 C                    -2.95109  -0.34907  -0.0028 
 C                    -2.57927   1.01944  -0.0068 
 C                    -1.24135   1.38434  -0.00135 
 O                     1.68542   1.89464   0.00071 
 O                     2.03604  -0.30929   0.00133 
 N                    -4.286    -0.7213    0.07593 
 C                     3.44206  -0.00411   0.00012 
 C                     3.64471   1.05565   1.05546 
 H                     0.2047   -1.71117  -0.0026 
 H                    -2.18229  -2.39785  -0.00779 
 H                    -3.35281   1.80153  -0.0047 
 H                    -0.96073   2.45067   0.00048 
 H                    -4.94917  -0.03583  -0.20067 
 H                    -4.49885  -1.651    -0.20088 
 H                     3.73055   0.35915  -1.0207 
 H                     4.01382  -0.94085   0.23018 
 H                     4.7273    1.32366   1.09737 
 H                     3.32138   0.68084   2.05582 
 H                     3.05068   1.96914   0.81397 

