%Chk=e4_06_nh4+_g3
# G3

PA: Ammonium, NH4+

     1     1
  N                                                 0.000000000000      0.000000000000      0.000000000000
  H                                                 0.592761007064      0.592761007064      0.592761007064
  H                                                -0.592761007064     -0.592761007064      0.592761007064
  H                                                 0.592761007064     -0.592761007064     -0.592761007064
  H                                                -0.592761007064      0.592761007064     -0.592761007064

