%Chk=e4_05_cn
# APFD/6-311+G(2d,p) Opt Freq Int=(UltraFine,Acc2E=12)

Neutral: CN Radical (2-SG) Opt Freq

     0     2
  C                                                 0.000000000000      0.000000000000      0.002230660503
  N                                                 0.000000000000      0.000000000000      1.171689949497

