# 

2,2,4-trimethyl-1,3-pentanediol

0 1
 C                 -2.99800000   -0.45400000   -0.61900000
 C                 -1.68700000    0.33100000   -0.42200000
 H                 -3.81900000    0.23000000   -0.66400000
 H                 -2.94600000   -1.01100000   -1.53100000
 H                 -3.13800000   -1.12600000    0.20200000
 C                 -0.50500000   -0.65400000   -0.35700000
 H                 -1.54700000    1.00300000   -1.24300000
 C                  0.80600000    0.13100000   -0.16000000
 H                 -0.45300000   -1.21100000   -1.26900000
 C                  1.98800000   -0.85400000   -0.09500000
 H                  2.04000000   -1.41000000   -1.00700000
 H                  1.84800000   -1.52600000    0.72600000
 C                 -1.76100000    1.13200000    0.89100000
 H                 -1.90100000    0.46000000    1.71200000
 H                 -0.85000000    1.67700000    1.02800000
 H                 -2.58300000    1.81600000    0.84600000
 C                  0.73200000    0.93200000    1.15300000
 H                 -0.09000000    1.61600000    1.10800000
 H                  0.59200000    0.26000000    1.97400000
 H                  1.64300000    1.47700000    1.29000000
 C                  1.00800000    1.09800000   -1.34100000
 H                  1.91800000    1.64300000   -1.20400000
 H                  1.05900000    0.54100000   -2.25300000
 H                  0.18600000    1.78200000   -1.38600000
 O                  3.20500000   -0.12500000    0.08800000
 H                  3.94300000   -0.73900000    0.12900000
 O                 -0.69200000   -1.55200000    0.74000000
 H                 -1.50900000   -2.04100000    0.61700000

