%Chk=e4_06_nh3_cbs
# CBS-QB3

Neutral: Ammonia (NH3)

     0     1
  N                                                 0.000000000000      0.000000000000      0.002751257845
  H                                                 0.934142702127      0.000000000000     -0.398841967918
  H                                                -0.467071351064     -0.808991310802     -0.398841967918
  H                                                -0.467071351064      0.808991310802     -0.398841967918

