%Chk=e4_03_benzocaine_tr
# APFD 6-311+G(2d,p) OPT FREQ(Raman) Int=(UltraFine,Acc2E=12)

benzocaine trans conformer

  0  1
C 0    1.232605   -0.387924    0.009186
C 0    0.005005   -0.157242    0.773819
C 0   -0.712708   -1.265045    1.247360
C 0   -1.881729   -1.090836    1.971359
C 0   -2.365082    0.212860    2.252151
C 0   -1.633484    1.324753    1.762726
C 0   -0.465424    1.134476    1.039780
O 0    1.748611   -1.469238   -0.295258
O 0    1.863297    0.756653   -0.406906
N 0   -3.488388    0.396820    3.046555
C 0    3.075653    0.575714   -1.160233
C 0    3.573654    1.960052   -1.497131
H 0   -0.335785   -2.279678    1.034134
H 0   -2.428848   -1.972900    2.335770
H 0   -1.984756    2.347809    1.962692
H 0    0.100143    2.004517    0.667007
H 0   -3.932755    1.282333    2.978928
H 0   -4.102951   -0.379517    3.123200
H 0    2.842117   -0.021942   -2.079758
H 0    3.808975    0.007065   -0.530792
H 0    4.521332    1.872849   -2.080139
H 0    3.768800    2.544662   -0.566589
H 0    2.818604    2.511642   -2.106476

