%Chk=e4_05_nh3
# APFD/6-311+G(2d,p) Opt Freq Int=(UltraFine,Acc2E=12)

Neutral: Ammonia (NH3) Opt Freq

     0     1
  N                                                 0.000000000000      0.000000000000      0.002751257845
  H                                                 0.934142702127      0.000000000000     -0.398841967918
  H                                                -0.467071351064     -0.808991310802     -0.398841967918
  H                                                -0.467071351064      0.808991310802     -0.398841967918

