%Chk=e4_10_defwav
# apfd/6-311+G(2d,p) opt freq Int=(Ultrafine,Acc2E=12)

cn+ singlet diradical

1,1
  C         0.000000000000      0.000000000000     -0.619406513457
  N         0.000000000000      0.000000000000      0.530919868677

--link1--
%Chk=e4_10_defwav
# bd/6-31G(d) guess=read geom=allcheck


