%Chk=x4_04_butane
# APFD/6-311+G(2d,p) Opt Freq Int=(UltraFine,Acc2E=12)

Butane NMR Properties

0   1
C  0  0.  0.767105  0.
C  0  0.  -0.767105  0.
C  0  1.407571  1.372311  0.
C  0  -1.407571  -1.372311  0.
H  0  1.372874  2.467846  0.
H  0  -1.372874  -2.467846  0.
H  0  1.974414  1.056859  0.884767
H  0  1.974414  1.056859  -0.884767
H  0  -1.974414  -1.056859  0.884767
H  0  -1.974414  -1.056859  -0.884767
H  0  -0.554359  1.127932  -0.878287
H  0  -0.554359  1.127932  0.878287
H  0  0.554359  -1.127932  -0.878287
H  0  0.554359  -1.127932  0.878287

--Link1--
%Chk=x4_04_butane
# APFD/6-311+G(2d,p) NMR Guess=Read Geom=AllCheck Int=(UltraFine,Acc2E=12)

