%Chk=x4_02_formamide
# opt freq APFD/6-311+g(2d,p) geom=connectivity Int=(UltraFine,Acc2E=12)

Formamide 

0 1
 N                  0.00000000    0.00000000    0.00000000
 C                  0.00000000    0.00000000    1.34888000
 O                  0.97757161    0.00000000    2.03210151
 H                 -1.00675516    0.00000000    1.76913701
 H                  0.86806694   -0.00000000   -0.48768684
 H                 -0.84393296   -0.00000000   -0.52309422

 1 2 1.5 5 1.0 6 1.0
 2 3 2.0 4 1.0
 3
 4
 5
 6

