%Chk=x4_01_prismane
# opt freq APFD/6-311+g(2d,p) Int=(UltraFine,Acc2E=12)

Prismane

0 1
 C                  0.77443279    0.00000000    0.12996037
 C                  0.77443279   -0.75347642    1.43501981
 C                 -0.77443279    0.00000000    0.12996037
 C                 -0.77443279   -0.75347642    1.43501981
 C                 -0.77443279    0.75347642    1.43501981
 H                  1.49973351    0.00000000   -0.66182754
 H                  1.49973351   -1.43918487    1.83091377
 H                 -1.49973351    0.00000000   -0.66182754
 H                 -1.49973351   -1.43918487    1.83091377
 H                 -1.72678006    1.18562034    1.67848551
 C                  0.77443279    0.77000000    1.46363949
 H                  1.70107997    1.03750000    1.92696308

