%Chk=x4_04_butene
# APFD/6-311+G(2d,p) Opt Freq Int=(UltraFine,Acc2E=12)

Trans 2-Butene NMR Properties

0 1
C           0.000000    0.667614    0.000000
C           0.000000   -0.667614    0.000000
C           1.226946   -1.535762    0.000000
C          -1.226946    1.535762    0.000000
H          -0.957948   -1.192291    0.000000
H           0.957948    1.192291    0.000000
H           2.143559   -0.935724    0.000000
H          -2.143559    0.935724    0.000000
H           1.251318   -2.192033    0.880777
H           1.251318   -2.192033   -0.880777
H          -1.251318    2.192033    0.880777
H          -1.251318    2.192033   -0.880777

--Link1--
%Chk=x4_04_butene
# APFD/6-311+G(2d,p) NMR Guess=Read Geom=AllCheck Int=(UltraFine,Acc2E=12)

