%Chk=x4_01_cyclobutene
# opt freq APFD/6-311+g(2d,p) Int=(UltraFine,Acc2E=12)

CycloButene 

0 1
 C                  0.66115190    0.00000000    0.00000000
 C                 -0.66115190   -0.00000000    0.00000000
 C                  0.78117691    0.00000000    1.51019428
 C                 -0.78117691    0.00000000    1.51019428
 H                  1.40125941   -0.00000000   -0.78009691
 H                 -1.40125941   -0.00000000   -0.78009691
 H                  1.23818306    0.88178805    1.94840551
 H                  1.23818306   -0.88178805    1.94840551
 H                 -1.23818306   -0.88178805    1.94840551
 H                 -1.23818306    0.88178805    1.94840551

