%chk=x4_02_acetone.chk
# opt=calcfc freq APFD/6-311+g(2d,p) geom=connectivity int=(ultrafine,acc2e=12)

Acetone optimization

0 1
 C                  0.00000000    0.00000000    0.18588000
 O                  0.00000000    0.00000000    1.39331400
 C                 -0.02000000    1.28165200   -0.61054000
 C                  0.02000000   -1.28165200   -0.61054000
 H                  0.34000000    2.14152400    0.05771600
 H                 -0.34000000   -2.14152400    0.05771600
 H                 -1.13816400    1.47013400   -0.94268500
 H                  0.61816400    1.17013400   -1.58268500
 H                  1.13816400   -1.47013400   -0.94268500
 H                 -0.61816400   -1.17013400   -1.58268500

 1 2 2.0 3 1.0 4 1.0
 2
 3 5 1.0 7 1.0 8 1.0
 4 6 1.0 9 1.0 10 1.0
 5
 6
 7
 8
 9
 10

