%Chk=x4_07_naph
# cbs-qb3 geom=connectivity

Naphthalene

0 1
 C                 -2.42610388   -0.70881491    0.00000000
 C                 -1.24119954   -1.40205677    0.00000000
 C                  0.00000000   -0.70918612    0.00000000
 C                 -0.00000000    0.70918612    0.00000000
 C                 -1.24119954    1.40205677   -0.00000000
 C                 -2.42610388    0.70881491   -0.00000000
 H                  1.23306389   -2.50189963    0.00000000
 H                 -3.38797619   -1.24247368    0.00000000
 H                 -1.23306389   -2.50189963    0.00000000
 C                  1.24119954   -1.40205677   -0.00000000
 C                  1.24119954    1.40205677    0.00000000
 H                 -1.23306389    2.50189963    0.00000000
 H                 -3.38797619    1.24247368   -0.00000000
 C                  2.42610388    0.70881491    0.00000000
 C                  2.42610388   -0.70881491   -0.00000000
 H                  1.23306389    2.50189963   -0.00000000
 H                  3.38797619    1.24247368    0.00000000
 H                  3.38797619   -1.24247368   -0.00000000

 1 2 1.5 6 1.5 8 1.0
 2 3 1.5 9 1.0
 3 4 1.5 10 1.5
 4 5 1.5 11 1.5
 5 6 1.5 12 1.0
 6 13 1.0
 7 10 1.0
 8
 9
 10 15 1.5
 11 14 1.5 16 1.0
 12
 13
 14 15 1.5 17 1.0
 15 18 1.0
 16
 17
 18

