%Chk=x4_03
# freq=raman APFD/6-311+g(2d,p) Int=(UltraFine,Acc2E=12)

Deuterated Benzene Freq

0 1
 C                 -1.38830800    0.10191200   -0.00000100
 C                 -0.60575800    1.25303900   -0.00000900
 C                  0.78235500    1.15112900   -0.00000100
 C                  1.38830300   -0.10197300   -0.00000200
 C                  0.60581200   -1.25301300   -0.00000100
 C                 -0.78240600   -1.15109600    0.00000500
 H(Iso=2)          -2.46907800    0.18142400    0.00000900
 H(Iso=2)          -1.07740500    2.22874000    0.00001400
 H(Iso=2)           1.39148100    2.04745000    0.00002700
 H(Iso=2)           2.46908300   -0.18134400    0.00000900
 H(Iso=2)           1.07733700   -2.22877200   -0.00000600
 H(Iso=2)          -1.39141700   -2.04749400   -0.00000100

