%Chk=x4_01_pentaprismane
# opt freq APFD/6-311+g(2d,p) geom=connectivity Int=(UltraFine,Acc2E=12)

Pentaprismane 

0 1
 C                  0.77896834    0.00000000   -0.31983820
 C                  0.77896834    1.25524072    0.59214757
 C                  0.77896834   -1.25524072    0.59214757
 C                  0.77896834    0.77578143    2.06777153
 C                  0.77896834   -0.77578143    2.06777153
 C                 -0.77896834    0.00000000   -0.31983820
 C                 -0.77896834   -1.25524072    0.59214757
 C                 -0.77896834    1.25524072    0.59214757
 C                 -0.77896834   -0.77578143    2.06777153
 C                 -0.77896834    0.77578143    2.06777153
 H                  1.37292457    0.00000000   -1.22449357
 H                  1.37292457    2.11561911    0.31259368
 H                  1.37292457   -2.11561911    0.31259368
 H                  1.37292457    1.30752451    2.79965310
 H                  1.37292457   -1.30752451    2.79965310
 H                 -1.37292457    0.00000000   -1.22449357
 H                 -1.37292457   -2.11561911    0.31259368
 H                 -1.37292457    2.11561911    0.31259368
 H                 -1.37292457   -1.30752451    2.79965310
 H                 -1.37292457    1.30752451    2.79965310

 1 2 1.0 3 1.0 6 1.0 11 1.0
 2 4 1.0 8 1.0 12 1.0
 3 5 1.0 7 1.0 13 1.0
 4 5 1.0 10 1.0 14 1.0
 5 9 1.0 15 1.0
 6 7 1.0 8 1.0 16 1.0
 7 9 1.0 17 1.0
 8 10 1.0 18 1.0
 9 10 1.0 19 1.0
 10 20 1.0
 11
 12
 13
 14
 15
 16
 17
 18
 19
 20

