%Chk=x4_01_bicyclopentane
# opt freq APFD/6-311+g(2d,p) geom=connectivity Int=(UltraFine,Acc2E=12)

Bicyclo[1.1.1]pentane 

0 1
 C                  0.00000000    0.00000000    0.93499300
 C                  1.23083200    0.00000000    0.00000000
 C                  0.00000000    0.00000000   -0.93499300
 C                 -0.61541600    1.06593178    0.00000000
 C                 -0.61541600   -1.06593178    0.00000000
 H                  0.00000000   -0.00000000    2.01729700
 H                  0.00000000    0.00000000   -2.01729700
 H                  1.84539647   -0.89370515    0.00000000
 H                  1.84539647    0.89370515    0.00000000
 H                 -0.14872687    2.04501279    0.00000000
 H                 -1.69666960    1.15130765    0.00000000
 H                 -0.14872687   -2.04501279    0.00000000
 H                 -1.69666960   -1.15130765    0.00000000

 1 2 1.0 4 1.0 5 1.0 6 1.0
 2 3 1.0 8 1.0 9 1.0
 3 4 1.0 5 1.0 7 1.0
 4 10 1.0 11 1.0
 5 12 1.0 13 1.0
 6
 7
 8
 9
 10
 11
 12
 13

