%Chk=x4_09_open
# APFD/6-311g(2d,p) geom=connectivity freq Int=(UltraFine,Acc2E=12)

C60O open isomer freq at APFD/6-311G(2d,p) geometry

0 1
 C                  2.12204500    2.70832100    0.00000000
 C                  1.38288300    2.97993500    1.24661000
 C                  1.38288300    2.97993500   -1.24661000
 C                  3.00700900    1.61792200    0.00000000
 C                  0.10359000    3.61275100    1.07340600
 C                  0.10359000    3.61275100   -1.07340600
 C                  3.17249100    0.76522900   -1.16437900
 C                  3.17249100    0.76522900    1.16437900
 C                  1.50299000    2.09756300    2.32436600
 C                  1.50299000    2.09756300   -2.32436600
 C                  3.39885700   -0.59721600   -0.72145300
 C                  3.39885700   -0.59721600    0.72145300
 C                  2.42526500    0.99438000    2.30416500
 C                  0.33766600    1.68503400    3.07169900
 C                 -1.04247200    3.02004100    1.55307800
 C                  0.33766600    1.68503400   -3.07169900
 C                  2.42526500    0.99438000   -2.30416500
 C                 -1.04247200    3.02004100   -1.55307800
 O                 -0.01513200    4.47716800    0.00000000
 C                  1.83901700   -0.10944900    3.03779700
 C                  0.53493300    0.31734600    3.50066700
 C                 -0.91798200    2.08932300    2.63322600
 C                 -2.18116200    2.58926300    0.70135500
 C                  0.53493300    0.31734600   -3.50066700
 C                  1.83901700   -0.10944900   -3.03779700
 C                 -2.18116200    2.58926300   -0.70135500
 C                 -0.91798200    2.08932300   -2.63322600
 C                  2.83650300   -1.66084100    1.41873800
 C                  2.83650300   -1.66084100   -1.41873800
 C                 -2.01629900    1.16236800    2.58865300
 C                 -2.79004100    1.45984200    1.40147300
 C                 -2.79004100    1.45984200   -1.40147300
 C                 -2.01629900    1.16236800   -2.58865300
 C                 -0.53132200   -0.57594100    3.48624100
 C                  2.03287100   -1.41108700    2.59957200
 C                  2.23519200   -2.76197700    0.69435300
 C                 -0.53132200   -0.57594100   -3.48624100
 C                  2.23519200   -2.76197700   -0.69435300
 C                  2.03287100   -1.41108700   -2.59957200
 C                 -3.38707700    0.40686900   -0.71855900
 C                 -3.38707700    0.40686900    0.71855900
 C                 -1.83776900   -0.14178700    3.02687400
 C                 -0.33107100   -1.93512700    3.02919500
 C                  1.05082000   -3.18187300    1.42087600
 C                  0.92654600   -2.34664300    2.59735200
 C                 -0.33107100   -1.93512700   -3.02919500
 C                 -1.83776900   -0.14178700   -3.02687400
 C                  1.05082000   -3.18187300   -1.42087600
 C                  0.92654600   -2.34664300   -2.59735200
 C                 -0.08550900   -3.57671900    0.72498700
 C                 -0.08550900   -3.57671900   -0.72498700
 C                 -3.20859700   -0.96182800   -1.17118300
 C                 -3.20859700   -0.96182800    1.17118300
 C                 -1.51575500   -2.34416000    2.29901700
 C                 -2.44621900   -1.23366100    2.29854800
 C                 -1.51575500   -2.34416000   -2.29901700
 C                 -2.44621900   -1.23366100   -2.29854800
 C                 -1.39536700   -3.14823700    1.17250600
 C                 -1.39536700   -3.14823700   -1.17250600
 C                 -3.09128100   -1.80600600    0.00000000
 C                 -2.20356500   -2.87659000    0.00000000

 1 2 1.0 3 1.0 4 1.5
 2 5 1.5 9 1.5
 3 6 1.5 10 1.5
 4 7 1.0 8 1.0
 5 15 2.0 19 1.0
 6 18 2.0 19 1.0
 7 11 1.0 17 2.0
 8 12 1.0 13 2.0
 9 13 1.5 14 1.5
 10 16 1.5 17 1.5
 11 12 1.5 29 1.5
 12 28 1.5
 13 20 1.0
 14 21 1.5 22 1.5
 15 22 1.5 23 1.0
 16 24 1.5 27 1.5
 17 25 1.0
 18 26 1.0 27 1.5
 19
 20 21 1.0 35 1.5
 21 34 1.5
 22 30 1.5
 23 26 1.5 31 1.0
 24 25 1.0 37 1.5
 25 39 1.5
 26 32 1.0
 27 33 1.5
 28 35 1.0 36 1.0
 29 38 1.0 39 1.0
 30 31 1.0 42 1.5
 31 41 1.5
 32 33 1.0 40 1.5
 33 47 1.5
 34 42 1.0 43 1.0
 35 45 1.0
 36 38 1.5 44 1.0
 37 46 1.0 47 1.0
 38 48 1.0
 39 49 1.0
 40 41 1.5 52 1.0
 41 53 1.0
 42 55 1.5
 43 45 1.5 54 1.0
 44 45 1.0 50 1.5
 45
 46 49 1.5 56 1.0
 47 57 1.5
 48 49 1.0 51 1.5
 49
 50 51 1.0 58 1.0
 51 59 1.0
 52 57 1.5 60 1.0
 53 55 1.5 60 1.0
 54 55 1.0 58 1.5
 55
 56 57 1.0 59 1.5
 57
 58 61 1.0
 59 61 1.0
 60 61 1.5
 61

