%Chk=x4_08_h2o_cbs
# CBS-QB3

Neutral: Water

     0     1
  O                                                 0.002398275980      0.000000000000      0.001886491747
  H                                                 0.001630032847      0.000000000000      0.963999460700
  H                                                 0.937264359287      0.000000000000     -0.225462054562

