%Chk=x4_02_acetylchloride
# opt freq APFD/6-311+g(2d,p) geom=connectivity Int=(UltraFine,Acc2E=12)

Acetyl Chloride 

0 1
 C                  0.00000000    0.00000000    0.00000000
 C                  0.00000000    0.00000000    1.50259100
 Cl                 1.64397464    0.00000000   -0.69277383
 O                 -0.93146870   -0.00000000   -0.70354722
 H                 -1.02418825   -0.00000000    1.84766530
 H                  0.52047166   -0.87642089    1.86862673
 H                  0.52047166    0.87642089    1.86862673

 1 2 1.0 3 1.0 4 2.0
 2 5 1.0 6 1.0 7 1.0
 3
 4
 5
 6
 7


