%Chk=x4_07_azulene
# cbs-qb3 geom=connectivity

Azulene

0 1
 C                  0.03761405   -2.49227025    0.00000000
 C                  1.26315866   -1.90097830    0.00000000
 C                  1.58468987   -0.52219421    0.00000000
 C                 -1.25047513   -1.90470331    0.00000000
 C                  0.73374072    0.53426367    0.00000000
 C                 -1.59551705   -0.58930946    0.00000000
 C                 -0.75053580    0.54096260    0.00000000
 H                  0.02831876   -3.60219272    0.00000000
 H                  2.14195409   -2.57634322    0.00000000
 H                  2.67024853   -0.29310378    0.00000000
 H                 -2.08418341   -2.63527682    0.00000000
 H                 -2.67946197   -0.35154233    0.00000000
 C                  1.13656094    1.93503651    0.00000000
 H                  2.17300351    2.26495258    0.00000000
 C                  0.00197405    2.72185013    0.00000000
 H                 -0.03816651    3.81034250    0.00000000
 C                 -1.16457986    1.86979629    0.00000000
 H                 -2.19149566    2.22844187    0.00000000

 1 2 2.0 4 1.5 8 1.0
 2 3 1.5 9 1.0
 3 5 2.0 10 1.0
 4 6 2.0 11 1.0
 5 7 1.0 13 1.0
 6 7 1.5 12 1.0
 7 17 1.5
 8
 9
 10
 11
 12
 13 14 1.0 15 2.0
 14
 15 16 1.0 17 1.5
 16
 17 18 1.0
 18

