%chk=x4_13_acetaldehyde.chk
# freq=anharmonic apfd/6-311+g(2d,p) geom=connectivity int=(ultrafine,acc2e=12)

Acetaldehyde Freq=Anharmonic

0 1
 C                  0.92832100   -0.71912300    0.00000000
 C                  0.00000000    0.45861900    0.00000000
 H                  0.37118100   -1.65574400    0.00000000
 H                  1.58087300   -0.66860900    0.87832500
 H                  1.58087300   -0.66860900   -0.87832500
 O                 -1.20007000    0.38772400    0.00000000
 H                  0.49770100    1.45419300    0.00000000

 1 2 1.0 3 1.0 4 1.0 5 1.0
 2 6 2.0 7 1.0
 3
 4
 5
 6
 7

