%Chk=x4_10_eq
# opt freq APFD/6-311+g(2d,p) geom=connectivity Int=(UltraFine,Acc2E=12)

Chlorocyclohexane: Equatorial conformer

0 1
 C                  0.39250889   -0.63580095    0.00000000
 C                 -0.17481455    0.04879926    1.25740473
 C                  0.22603290    1.53571597    1.25740473
 C                 -0.34129054    2.22031618    0.00000000
 C                  0.22603290    1.53571597   -1.25740473
 C                 -0.17481455    0.04879926   -1.25740473
 H                 -0.16814637    2.01137975    2.13105608
 H                 -1.24168400   -0.03299064    1.25740473
 H                  0.21936472   -0.42686453    2.13105608
 H                  1.45937833   -0.55401106    0.00000000
 H                 -1.40815998    2.13852628    0.00000000
 H                 -0.06277964    3.25343364    0.00000000
 H                 -0.16814637    2.01137975   -2.13105608
 H                  1.29290235    1.61750586   -1.25740473
 H                 -1.24168400   -0.03299064   -1.25740473
 H                  0.21936472   -0.42686453   -2.13105608
 H                  1.29290235    1.61750586    1.25740473
 Cl                -0.06560249   -2.33513434    0.00000000

 1 2 1.0 6 1.0 10 1.0 18 1.0
 2 3 1.0 8 1.0 9 1.0
 3 4 1.0 7 1.0 17 1.0
 4 5 1.0 11 1.0 12 1.0
 5 6 1.0 13 1.0 14 1.0
 6 16 1.0 15 1.0
 7
 8
 9
 10
 11
 12
 13
 14
 15
 16
 17
 18

--Link1--
%Chk=x4_10_eq
# APFD/6-311+g(2d,p) geom=allcheck guess=read nmr Int=(UltraFine,Acc2E=12)

