%Chk=x4_10_ax
# opt freq APFD/6-311+g(2d,p) geom=connectivity Int=(UltraFine,Acc2E=12)

Chlorocyclohexane: Axial conformer

0 1
 C                  0.84437133   -0.73453813    0.00000000
 C                  0.83860302    0.15456257    1.25740473
 C                 -0.42454355    1.03550566    1.25740473
 C                 -0.43031185    1.92460637    0.00000000
 C                 -0.42454355    1.03550566   -1.25740473
 C                  0.83860302    0.15456257   -1.25740473
 H                 -1.29416866    0.41208593    1.25740473
 H                  0.84261087   -0.46318922    2.13105608
 H                  1.70822813    0.77798231    1.25740473
 H                  1.72201213   -1.34662197    0.00000000
 H                 -1.30795265    2.53669020    0.00000000
 H                  0.43931326    2.54802610    0.00000000
 H                 -1.29416866    0.41208593   -1.25740473
 H                 -0.42855139    1.65325745   -2.13105608
 H                  0.84261087   -0.46318922   -2.13105608
 H                  1.70822813    0.77798231   -1.25740473
 H                 -0.42855139    1.65325745    2.13105608
 Cl                -0.58604007   -1.75997620    0.00000000

 1 2 1.0 10 1.0 18 1.0 6 1.0
 2 3 1.0 8 1.0 9 1.0
 3 4 1.0 7 1.0 17 1.0
 4 5 1.0 11 1.0 12 1.0
 5 6 1.0 13 1.0 14 1.0
 6 16 1.0 15 1.0
 7
 8
 9
 10
 11
 12
 13
 14
 15
 16
 17
 18

--Link1--
%Chk=x4_10_ax
# APFD/6-311+g(2d,p) geom=allcheck guess=read nmr Int=(UltraFine,Acc2E=12)

