%Chk=x4_11_tetramer
# opt freq=raman cphf(static,rdfreq) APFD 6-311+G(2d,p) geom=connect Int=(UltraFine,Acc2E=12)

water tetramer frequency dependent Raman

0 1
 O                  1.36915600   -1.36915600    0.00199300
 H                  1.50712200   -0.39317900    0.01127200
 H                  1.86972500   -1.70353600   -0.74905700
 O                  1.36915600    1.36915600   -0.00199300
 H                  0.39317900    1.50712200   -0.01127200
 H                  1.70353600    1.86972500    0.74905700
 O                 -1.36915600   -1.36915600   -0.00199300
 H                 -1.70353600   -1.86972500    0.74905700
 H                 -0.39317900   -1.50712200   -0.01127200
 O                 -1.36915600    1.36915600    0.00199300
 H                 -1.86972500    1.70353600   -0.74905700
 H                 -1.50712200    0.39317900    0.01127200

 1 2 1.0 3 1.0
 2
 3
 4 5 1.0 6 1.0
 5
 6
 7 8 1.0 9 1.0
 8
 9
 10 11 1.0 12 1.0
 11
 12

351.1nm, 435.8nm, 514.5nm

