%Chk=x4_11_hexamer
# opt freq=raman cphf(static,rdfreq) APFD 6-311+G(2d,p) geom=connect symm=loose Int=(UltraFine,Acc2E=12)

Hexamer cyclic water cluster

     0     1
  H                     -3.211083679965     -0.187642592832     -0.943659369258
  H                     -1.443038587758     -2.874701336944      0.943659369258
  H                      1.768045092207     -2.687058744111     -0.943659369258
  H                      3.211083679965      0.187642592832      0.943659369258
  H                      1.682339498361      1.639645114027     -0.027154110582
  H                     -1.768045092207      2.687058744111      0.943659369258
  O                      1.127144087301      2.448935080434     -0.140525628266
  O                     -2.684412035525     -0.248332126888     -0.140525628266
  O                     -1.127144087301     -2.448935080434      0.140525628266
  O                      1.557267948224     -2.200602953545     -0.140525628266
  O                      2.684412035525      0.248332126888      0.140525628266
  O                     -1.557267948224      2.200602953545      0.140525628266
  H                     -0.578804572758      2.276771300384      0.027154110582
  H                      1.443038587758      2.874701336944     -0.943659369258
  H                      2.261144071119     -0.637126186357      0.027154110582
  H                      0.578804572758     -2.276771300384     -0.027154110582
  H                     -1.682339498361     -1.639645114027      0.027154110582
  H                     -2.261144071119      0.637126186357     -0.027154110582

 1 8 1.000
 2 9 1.000
 3 10 1.000
 4 11 1.000
 5 7 1.000
 6 12 1.000
 7 5 1.000 14 1.000
 8 1 1.000 18 1.000
 9 2 1.000 17 1.000
 10 3 1.000 16 1.000
 11 4 1.000 15 1.000
 12 6 1.000 13 1.000
 13 12 1.000
 14 7 1.000
 15 11 1.000
 16 10 1.000
 17 9 1.000
 18 8 1.000
 
351.1nm, 435.8nm, 514.5nm

