%Chk=x4_14_cl
# opt freq APFD/6-311+g(2d,p) Int=(UltraFine,Acc2E=12)

CH3Cl Opt Freq

0 1
 C                  0.00000000   -0.00000000   -1.10961538
 H                 -0.00000000    1.00880568   -1.46628205
 H                 -0.87365135   -0.50440283   -1.46628206
 H                  0.87365134   -0.50440285   -1.46628205
 Cl                -0.00000000    0.00000000    0.65038462

--link1--
%Chk=x4_14_cl
# APFD/6-311+g(2d,p) polar=gamma geom=check guess=read Int=(UltraFine,Acc2E=12) cphf=rdfreq

CH3Cl Gamma @ std model geom

0 1

694.3nm

