%Chk=x4_15_1
# APFD/6-311+G(2d,p) opt freq Int=(UltraFine,Acc2E=12)

linear polyene n=1 opt freq (ethene)

0 1
 C          0.66407700    0.00000000    0.00000000 
 H          1.23709300    0.00000000    0.93101000 
 H          1.23709300    0.00000000   -0.93101000 
 C         -0.66407700    0.00000000    0.00000000 
 H         -1.23709300    0.00000000   -0.93101000 
 H         -1.23709300    0.00000000    0.93101000 

--link1--
%Chk=x4_15_1
# cam-b3lyp/6-311++G(3df,2p) Polar=gamma Int=(UltraFine,Acc2E=12) cphf=rdfreq geom=check guess=read

Ethene gamma calculation @ APFD/6-311+G(2d,p) geometry

0 1

694nm

--link1--
%Chk=x4_15_1
# lc-blyp/6-311++G(3df,2p) Polar=gamma Int=(UltraFine,Acc2E=12) geom=allcheck guess=read

--link1--
%Chk=x4_15_1
# apfd/6-311++G(3df,2p) Polar=gamma Int=(UltraFine,Acc2E=12) geom=allcheck guess=read

