%chk=x4_13_acetylchloride.chk
# freq=anharmonic apfd/6-311+g(2d,p) geom=connectivity int=(ultrafine,acc2e=12)

Acetyl Chloride Freq=Anharmonic

0 1
 C                  0.00000000    0.53578600    0.00000000
 C                  1.48441300    0.72184900    0.00000000
 Cl                -0.45554200   -1.21982900    0.00000000
 O                 -0.83755600    1.36645500    0.00000000
 H                  1.71528100    1.78648700    0.00000000
 H                  1.91145500    0.23657700    0.87999700
 H                  1.91145500    0.23657700   -0.87999700

 1 2 1.0 3 1.0 4 2.0
 2 5 1.0 6 1.0 7 1.0
 3
 4
 5
 6
 7

