%chk=x4_13_formamide.chk
# freq=anharmonic apfd/6-311+g(2d,p) geom=connectivity int=(ultrafine,acc2e=12)

Formamide Freq=Anharmonic

0 1
 N                 -0.93620900   -0.56394600    0.00000000
 C                  0.00000000    0.41665800    0.00000000
 O                  1.19533000    0.23707900    0.00000000
 H                 -0.44904600    1.42827900    0.00000000
 H                 -0.64210900   -1.52790000    0.00000000
 H                 -1.91802100   -0.34933700    0.00000000

 1 2 1.5 5 1.0 6 1.0
 2 3 2.0 4 1.0
 3
 4
 5
 6

