%chk=x4_13_methylacetate.chk
# freq=anharmonic apfd/6-311+g(2d,p) geom=connectivity int=(ultrafine,acc2e=12)

Methyl Acetate Freq=Anharmonic

0 1
 C                  0.00000000    0.49074400    0.00000000
 O                 -1.17336200    0.76171400    0.00000000
 O                  0.47261700   -0.76935700    0.00000000
 C                  1.13099900    1.48006100    0.00000000
 C                 -0.52381000   -1.79162600    0.00000000
 H                  0.73132000    2.49161800    0.00000000
 H                  1.75900600    1.32607200    0.88017800
 H                  1.75900600    1.32607200   -0.88017800
 H                  0.02008000   -2.73365600    0.00000000
 H                 -1.15329700   -1.71202200    0.88744900
 H                 -1.15329700   -1.71202200   -0.88744900

 1 2 2.0 3 1.0 4 1.0
 2
 3 5 1.0
 4 6 1.0 7 1.0 8 1.0
 5 9 1.0 10 1.0 11 1.0
 6
 7
 8
 9
 10
 11

