%Chk=x4_15_2
# APFD/6-311+G(2d,p) opt freq Int=(UltraFine,Acc2E=12)

linear polyene n=2 opt freq (butadiene)

0 1
 C            1.84304362   -0.11079896    0.00000000
 H            2.00716669   -1.19190368    0.00000000
 H            2.72744559    0.52833113    0.00000000
 C            0.60992194    0.40149233    0.00000000
 H            0.47512711    1.48870673    0.00000000
 C           -0.60992194   -0.40149233    0.00000000
 H           -0.47512711   -1.48870673    0.00000000
 C           -1.84304362    0.11079896    0.00000000
 H           -2.72744559   -0.52833113    0.00000000
 H           -2.00716669    1.19190368    0.00000000

--link1--
%Chk=x4_15_2
# cam-b3lyp/6-311++G(3df,2p) Polar=gamma Int=(UltraFine,Acc2E=12) cphf=rdfreq geom=check guess=read

Butadiene gamma calculation @ APFD/6-311+G(2d,p) geometry

0 1

694nm

--link1--
%Chk=x4_15_2
# lc-blyp/6-311++G(3df,2p) Polar=gamma Int=(UltraFine,Acc2E=12) geom=allcheck guess=read

--link1--
%Chk=x4_15_2
# apfd/6-311++G(3df,2p) Polar=gamma Int=(UltraFine,Acc2E=12) geom=allcheck guess=read



