%chk=x4_13_acetone.chk
# freq=anharmonic apfd/6-311+g(2d,p) int=(ultrafine,acc2e=12)

Acetone Freq=Anharmonic

0 1
6        0.000000    0.000000    0.185810
8        0.000000    0.000000    1.393231
6        0.019240    1.281414   -0.610826
6       -0.019240   -1.281414   -0.610826
1        0.103095    2.139008    0.055096
1       -0.103095   -2.139008    0.055096
1       -0.899483    1.364549   -1.200421
1        0.850803    1.277839   -1.321967
1        0.899483   -1.364549   -1.200421
1       -0.850803   -1.277839   -1.321967

