%Chk=x10_07_si5h12
# APFD/6-311+G(2d,p) SCF=Tight Int=SG1
 
Si5H12
 
0,1
 Si                 0.00000000    0.00000000    0.00000000
 Si                 0.00000000    0.00000000    2.36488100
 Si                 2.22963118    0.00000000   -0.78829368
 Si                -1.11481559   -1.93091725   -0.78829368
 Si                -1.11481559    1.93091725   -0.78829368
 H                 -1.38546041    0.00000000    2.88000811
 H                  0.69273020    1.19984391    2.88000811
 H                  0.69273020   -1.19984391    2.88000811
 H                  2.25347754   -0.00000000   -2.26622731
 H                  2.94620775    1.19984390   -0.30689041
 H                  2.94620775   -1.19984390   -0.30689041
 H                 -1.12673877   -1.95156879   -2.26622731
 H                 -2.51219918   -1.95156881   -0.30689041
 H                 -0.43400858   -3.15141271   -0.30689041
 H                 -1.12673877    1.95156879   -2.26622731
 H                 -2.51219918    1.95156881   -0.30689041
 H                 -0.43400858    3.15141271   -0.30689041
 
--Link1--
%Chk=x10_07_si5h12
# APFD/6-311+G(2d,p) Int=FineGrid SCF=Tight Guess=Read Geom=AllCheck

--Link1--
%Chk=x10_07_si5h12
# APFD/6-311+G(2d,p) Int=UltraFine SCF=Tight Guess=Read Geom=AllCheck

--Link1--
%Chk=x10_07_si5h12
# APFD/6-311+G(2d,p) Int=SuperFine  SCF=Tight Guess=Read Geom=AllCheck



