# CISD(FC) cc-pVTZ

water, CISD frozen Core

0 1
 O                  0.00000000    0.00000000   -0.13530057
 H                 -0.00000000   -0.79068957    0.47691671
 H                 -0.00000000    0.79068957    0.47691671

--Link1--
# CCSD(T,FC) cc-pVTZ

water, CCSD(T) frozen Core

0 1
 O                  0.00000000    0.00000000   -0.13530057
 H                 -0.00000000   -0.79068957    0.47691671
 H                 -0.00000000    0.79068957    0.47691671

--Link1--
# BD(T,FC) cc-pVTZ

water, BD(T) frozen Core

0 1
 O                  0.00000000    0.00000000   -0.13530057
 H                 -0.00000000   -0.79068957    0.47691671
 H                 -0.00000000    0.79068957    0.47691671

--Link1--
# MP5(FC) cc-pVTZ

water, MP5 frozen Core

0 1
 O                  0.00000000    0.00000000   -0.13530057
 H                 -0.00000000   -0.79068957    0.47691671
 H                 -0.00000000    0.79068957    0.47691671


