%Chk=e2_07
# opt freq APFD/6-311+g(2d,p) geom=connectivity Int=(UltraFine,Acc2E=12)

Clean vs. Opt

0 1
 C                  1.18158215   -0.00778227    1.21364801
 C                 -0.21946171    0.02381007    1.21364799
 C                 -0.91998364    0.03960531    0.00000000
 C                 -0.21946171    0.02381007   -1.21364799
 C                  1.18158215   -0.00778227   -1.21364801
 C                  1.88210410   -0.02357776    0.00000000
 H                  1.71644615   -0.01984401    2.14029520
 H                 -0.75432575    0.03587101    2.14029517
 H                 -0.75432575    0.03587101   -2.14029517
 H                  1.71644615   -0.01984401   -2.14029520
 H                  2.95183219   -0.04769863    0.00000000
 N                 -2.38961009    0.07274288    0.00000000
 H                 -2.73348538   -0.39102789   -0.81649649
 H                 -2.73348538   -0.39102789    0.81649649

 1 2 1.5 6 1.5 7 1.0
 2 3 1.5 8 1.0
 3 4 1.5 12 1.0
 4 5 1.5 9 1.0
 5 6 1.5 10 1.0
 6 11 1.0
 7
 8
 9
 10
 11
 12 13 1.0 14 1.0
 13
 14

