%Chk=e2_08_oxirane
# opt freq apfd/6-311+g(2d,p) geom=connectivity Int=(Ultrafine,Acc2E=12)

Oxirane opt+freq

0 1
 C                  0.00000000    0.00000000    0.72624268
 O                  1.19870577    0.00000000    0.00000000
 C                  0.00000000    0.00000000   -0.72624268
 H                 -0.21172110    0.90927732    1.26268624
 H                 -0.21172110   -0.90927732    1.26268624
 H                 -0.21172110   -0.90927732   -1.26268624
 H                 -0.21172110    0.90927732   -1.26268624

 1 2 1.0 3 1.0 4 1.0 5 1.0
 2 3 1.0
 3 6 1.0 7 1.0
 4
 5
 6
 7
 4
 5
 6
 7
 8



