%Chk=e2_03rr
# APFD/6-311+g(2d,p) geom=connectivity Int=(UltraFine,Acc2E=12)

CHFCl-CHFCl RR form

0 1
 C                 -0.21212700    0.73161900   -0.22992100
 C                  0.21212700   -0.73161900   -0.22992100
 Cl                -2.00719000    0.83296900   -0.33069000
 Cl                 2.00719000   -0.83296900   -0.33069000
 F                  0.21212700    1.35290700    0.89999500
 H                  0.18447700    1.25204500   -1.09870700
 F                 -0.21212700   -1.35290700    0.89999500
 H                 -0.18447700   -1.25204500   -1.09870700

 1 2 1.0 3 1.0 5 1.0 6 1.0
 2 4 1.0 7 1.0 8 1.0
 3
 4
 5
 6
 7
 8

