%Chk=e2_05_Be
# APFD/6-311+g(2d,p) geom=connectivity pop=savebiortho Int=(UltraFine,Acc2E=12)

Heterosubstituted Allyl Radicals: R=Be

0 2
 C                 -0.00000000    0.48095766   -0.00000000
 C                 -0.68652508   -0.67035215    0.00000000
 H                 -0.60237691    1.39192224   -0.00000000
 H                 -1.77387712   -0.71126619    0.00000000
 H                 -0.19321373   -1.63955025    0.00000000
 Be                 1.67215457    0.52381528   -0.00000000

 1 2 2.0 3 1.0 6 1.0
 2 4 1.0 5 1.0
 3
 4
 5
 6

