%Chk=e2_05_CH3
# APFD/6-311+g(2d,p) geom=connectivity pop=savebiortho Int=(UltraFine,Acc2E=12)

Heterosubstituted Allyl Radicals: R=CH3

0 2
 C                 -0.00000000    0.00000000    0.44153889
 H                 -0.00000000    0.00000000    1.52897834
 C                 -0.00000000    1.22518069   -0.19572201
 C                 -0.00000000   -1.22518069   -0.19572201
 H                 -0.00000000    2.15155774    0.36267124
 H                 -0.00000000   -2.15155774    0.36267124
 H                 -0.00000000    1.29274682   -1.27744499
 H                 -0.00000000   -1.29274682   -1.27744499

 1 2 1.0 3 1.5 4 1.5
 2
 3 5 1.0 7 1.0
 4 6 1.0 8 1.0
 5
 6
 7
 8

