%Chk=e2_03ss
# APFD/6-311+g(2d,p) geom=connectivity Int=(UltraFine,Acc2E=12)

CHFCl-CHFCl SS form

0 1
 C                  0.00000000    0.00000000    0.00000000
 C                  0.00000000    0.00000000    1.53000000
 Cl                 1.66007188    0.00000000   -0.58460359
 Cl                -1.66007188    0.00000000    2.11460359
 F                 -0.64570942    1.11840152   -0.45731540
 H                 -0.51186846   -0.89016653   -0.36564221
 F                  0.64570942    1.11840152    1.98731540
 H                  0.51186846   -0.89016653    1.89564221

 1 2 1.0 3 1.0 5 1.0 6 1.0
 2 4 1.0 7 1.0 8 1.0
 3
 4
 5
 6
 7
 8

