%Chk=x2_03
# APFD/6-311+g(2d,p) pop=nbo geom=connectivity Int=(UltraFine,Acc2E=12) opt freq

dizincocene optimization, frequencies and natural (NPA) charges

0 1
 C                  0.00000000    1.20834655    3.14728638
 C                  1.14920586    0.37339962    3.14728638
 C                  0.71024828   -0.97757289    3.14728638
 C                 -0.71024828   -0.97757289    3.14728638
 C                 -1.14920586    0.37339962    3.14728638
 C                 -1.14920586    0.37339962   -3.14728638
 C                  0.00000000    1.20834655   -3.14728638
 C                  1.14920586    0.37339962   -3.14728638
 C                  0.71024828   -0.97757289   -3.14728638
 C                 -0.71024828   -0.97757289   -3.14728638
 Zn                 0.00000000    0.00000000    1.16870035
 Zn                 0.00000000    0.00000000   -1.16870035
 H                  0.00000000    2.28760917    3.15858396
 H                 -2.17564561    0.70691011    3.15858396
 H                 -1.34462293   -1.85071470    3.15858396
 H                  1.34462293   -1.85071470    3.15858396
 H                  2.17564561    0.70691011    3.15858396
 H                  0.00000000    2.28760917   -3.15858396
 H                 -2.17564561    0.70691011   -3.15858396
 H                  2.17564561    0.70691011   -3.15858396
 H                  1.34462293   -1.85071470   -3.15858396
 H                 -1.34462293   -1.85071470   -3.15858396

 1 2 1.5 5 1.5 13 1.0
 2 3 1.5 17 1.0
 3 4 1.5 16 1.0
 4 5 1.5 15 1.0
 5 14 1.0
 6 7 1.5 10 1.5 19 1.0
 7 8 1.5 18 1.0
 8 9 1.5 20 1.0
 9 10 1.5 21 1.0
 10 22 1.0
 11 12 1.0
 12
 13
 14
 15
 16
 17
 18
 19
 20
 21
 22

