%Chk=x2_10_iso
# opt freq APFD/6-31g(d) geom=connectivity Int=(UltraFine,Acc2E=12)

IsoButane

0 1
 C                  0.00000000    0.00000000    0.00000000
 H                  0.00000000    0.00000000    1.11740606
 C                  1.44177308    0.00000000   -0.47994170
 C                 -0.72088654   -1.24861212   -0.47994170
 C                 -0.72088654    1.24861212   -0.47994170
 H                  1.50236939   -0.00000000   -1.57666298
 H                 -0.75118470   -1.30109006   -1.57666298
 H                 -0.75118470    1.30109006   -1.57666298
 H                  1.98220195    0.88558194   -0.12123791
 H                  1.98220195   -0.88558194   -0.12123791
 H                 -0.22416452   -2.15942821   -0.12123791
 H                 -1.75803743   -1.27384627   -0.12123791
 H                 -1.75803743    1.27384627   -0.12123791
 H                 -0.22416452    2.15942821   -0.12123791

 1 2 1.0 3 1.0 4 1.0 5 1.0
 2
 3 6 1.0 9 1.0 10 1.0
 4 7 1.0 11 1.0 12 1.0
 5 8 1.0 13 1.0 14 1.0
 6
 7
 8
 9
 10
 11
 12
 13
 14

