%Chk=x2_10_n
# opt freq APFD/6-31g(d) geom=connectivity Int=(UltraFine,Acc2E=12)

N-Butane

0 1
 C                  0.00000000    0.00000000    0.00000000
 C                  0.00000000    0.00000000    1.52075098
 C                  1.40602183    0.00000000   -0.55616357
 C                 -1.40602183    0.00000000    2.07691455
 H                  1.40062646   -0.00000000   -1.65365229
 H                 -1.40062646    0.00000000    3.17440327
 H                  1.97036234    0.88411121   -0.23063432
 H                  1.97036234   -0.88411121   -0.23063432
 H                 -1.97036234    0.88411121    1.75138530
 H                 -1.97036234   -0.88411121    1.75138530
 H                 -0.55584175   -0.88224636   -0.37530923
 H                 -0.55584175    0.88224636   -0.37530923
 H                  0.55584175   -0.88224636    1.89606021
 H                  0.55584175    0.88224636    1.89606021

 1 2 1.0 3 1.0 11 1.0 12 1.0
 2 4 1.0 13 1.0 14 1.0
 3 5 1.0 7 1.0 8 1.0
 4 6 1.0 9 1.0 10 1.0
 5
 6
 7
 8
 9
 10
 11
 12
 13
 14

