%Chk=x2_14_ala25
#p APFD/3-21g geom=connectivity iop1=timestamp scf=novaracc Int=(UltraFine,Acc2E=12)

Ac(Ala)25NH2

0 1
 C                 18.90973800    2.58708300   -0.17927200
 C                 18.17529100    1.64155500   -1.05097300
 H                 18.23037400    2.93333700    0.62195900
 H                 19.21996800    3.45523100   -0.79252900
 H                 19.80554600    2.11658300    0.27118000
 O                 17.16057400    2.02165800   -1.59781900
 N                 18.61563900    0.37572800   -1.23037900
 C                 17.92487800   -0.59057300   -2.10168300
 H                 19.46590200    0.06762700   -0.71065400
 C                 16.84335300   -1.34721100   -1.34885300
 H                 17.40454000   -0.05183500   -2.93132500
 C                 18.97041700   -1.53384100   -2.71451200
 H                 18.48060600   -2.24054000   -3.41887700
 O                 15.71713900   -1.40054500   -1.81377400
 H                 19.48517300   -2.11942800   -1.92381400
 H                 19.72724400   -0.94271900   -3.27342800
 N                 17.11085100   -1.96227900   -0.16966800
 C                 16.05832600   -2.57949000    0.65461100
 H                 18.07343300   -1.86641000    0.21952700
 C                 15.21831700   -1.55356400    1.40973100
 H                 15.34251100   -3.12243600   -0.00735100
 C                 16.71183500   -3.58987000    1.60715200
 H                 15.93066400   -4.11820400    2.19636700
 O                 14.11698900   -1.88539100    1.81364600
 H                 17.39476300   -3.07046700    2.31299800
 H                 17.29031600   -4.34056300    1.02756000
 N                 15.66404800   -0.29280000    1.64673600
 C                 14.85564300    0.72113400    2.34456700
 H                 16.59109400   -0.01688700    1.25736100
 C                 13.85040600    1.38016800    1.41377000
 H                 14.25970600    0.23735400    3.15664300
 C                 15.80205500    1.75053000    2.97839900
 H                 15.21949700    2.49345400    3.56548200
 O                 12.70140400    1.53513900    1.78957700
 H                 16.37465900    2.29004800    2.19479400
 H                 16.51547700    1.23984900    3.66007100
 N                 14.21817500    1.81776400    0.18582500
 H                 15.19905800    1.62385000   -0.11729200
 C                 13.27353300    2.43316200   -0.76147700
 C                 12.30218700    1.41848800   -1.34490600
 H                 12.65025500    3.19039800   -0.22743700
 C                 14.07623600    3.13815500   -1.86355200
 H                 13.39323300    3.65227800   -2.57298900
 O                 11.13835200    1.73754000   -1.51211300
 H                 14.69644300    2.40591200   -2.42862800
 H                 14.76300100    3.88858700   -1.41631800
 N                 12.71776800    0.18376700   -1.71368600
 C                 11.82464300   -0.81673500   -2.32179900
 H                 13.71739500   -0.05635500   -1.53062300
 C                 10.83519000   -1.39750100   -1.32254900
 H                 11.21132600   -0.33032100   -3.11869700
 C                 12.68431800   -1.91504100   -2.96311500
 H                 12.04029100   -2.66636400   -3.46821400
 O                  9.67737400   -1.56422600   -1.66437500
 H                 13.30334400   -2.42904100   -2.19484800
 H                 13.37373600   -1.47049100   -3.71309100
 N                 11.22676100   -1.77492500   -0.08174000
 C                 10.30801700   -2.39629000    0.88865600
 H                 12.20986200   -1.55814700    0.19923200
 C                  9.33886600   -1.39244100    1.49334600
 H                  9.67942800   -3.16030400    0.37002400
 C                 11.13683500   -3.09646900    1.97355400
 H                 10.47142300   -3.64040900    2.67751600
 O                  8.17648700   -1.71635700    1.66226400
 H                 11.73459000   -2.35561700    2.55008000
 H                 11.84112600   -3.82089100    1.51156800
 N                  9.75583500   -0.16619600    1.88726000
 C                  8.86362900    0.81898700    2.52192000
 H                 10.74812200    0.08792100    1.68292200
 C                  7.87600100    1.42542600    1.53673400
 H                  8.24942300    0.31350500    3.30602300
 C                  9.72493600    1.90031900    3.18909400
 H                  9.08196100    2.63632200    3.71750300
 O                  6.71981400    1.59456000    1.88265800
 H                 10.33702900    2.43764000    2.43026900
 H                 10.41911900    1.43694100    3.92249800
 N                  8.27004300    1.82046600    0.30307700
 C                  7.36047700    2.46285400   -0.66115700
 H                  9.25413500    1.60632100    0.02561500
 C                  6.37957700    1.47759200   -1.27724800
 H                  6.74126600    3.22927500   -0.13495900
 C                  8.20109500    3.16298300   -1.73747300
 H                  7.54382000    3.71149100   -2.44557500
 O                  5.21894500    1.81467700   -1.43257300
 H                  8.80198800    2.42101300   -2.30956100
 H                  8.90334500    3.88336700   -1.26622800
 N                  6.78294000    0.25478800   -1.69642000
 C                  5.87526500   -0.70778500   -2.34446900
 H                  7.77368200   -0.01472100   -1.50143700
 C                  4.89175800   -1.32762100   -1.36362700
 H                  5.25798400   -0.17874100   -3.11041400
 C                  6.71786400   -1.78162300   -3.04604800
 H                  6.06201500   -2.49011700   -3.59573900
 O                  3.73178500   -1.48241600   -1.70349200
 H                  7.32004100   -2.35317200   -2.30480500
 H                  7.41930700   -1.30795100   -3.76573300
 N                  5.29296700   -1.75012500   -0.14140300
 C                  4.38590500   -2.40433600    0.81726800
 H                  6.28165800   -1.55093100    0.13128400
 C                  3.41112900   -1.42552000    1.45328600
 H                  3.76168500   -3.16036700    0.28206600
 C                  5.22927400   -3.12373000    1.87862100
 H                  4.57352900   -3.67994700    2.58209600
 O                  2.25023800   -1.76135200    1.60958400
 H                  5.83638200   -2.39261400    2.45803500
 H                  5.92595700   -3.83990100    1.39288000
 N                  3.82053000   -0.21051800    1.88894600
 C                  2.91957700    0.74464600    2.55701000
 H                  4.81055600    0.05947300    1.69104600
 C                  1.93677100    1.38741300    1.59045100
 H                  2.30153900    0.20495000    3.31487800
 C                  3.76957700    1.80116400    3.27569200
 H                  3.11902500    2.50173600    3.84157900
 O                  0.77882700    1.54293000    1.93682200
 H                  4.37112200    2.38441700    2.54307200
 H                  4.47204700    1.31081000    3.98307300
 N                  2.33676900    1.82947800    0.37476800
 C                  1.43092400    2.50649400   -0.56913100
 H                  3.32351200    1.62953400    0.09549500
 C                  0.44675800    1.54562900   -1.21793200
 H                  0.81420600    3.25782400   -0.01883100
 C                  2.27573000    3.23761700   -1.62134200
 H                  1.62151500    3.80963500   -2.31349800
 O                 -0.71295800    1.89106400   -1.36143500
 H                  2.87631300    2.51220100   -2.21458200
 H                  2.97871800    3.94112000   -1.12623300
 N                  0.84660100    0.33659700   -1.67819900
 C                 -0.06300900   -0.60082900   -2.35940400
 H                  1.83589400    0.05732700   -1.49033200
 C                 -1.04329400   -1.25757900   -1.39974700
 H                 -0.68276700   -0.04336600   -3.10289200
 C                  0.77751300   -1.64707600   -3.10382300
 H                  0.12007100   -2.33375500   -3.67872500
 O                 -2.20408800   -1.40023800   -1.74209500
 H                  1.38119400   -2.24697400   -2.38655800
 H                  1.47735500   -1.14624100   -3.80642600
 N                 -0.63862500   -1.72553400   -0.19529600
 C                 -1.54361100   -2.41487300    0.74054600
 H                  0.35116700   -1.53753000    0.08181200
 C                 -2.52120000   -1.46124000    1.40975700
 H                 -2.16569900   -3.15388200    0.17970400
 C                 -0.69807100   -3.16766300    1.77671200
 H                 -1.35209800   -3.74945400    2.46083600
 O                 -3.68102800   -1.80560500    1.55484500
 H                 -0.09294700   -2.45501100    2.38064600
 H                  0.00066000   -3.86483600    1.26683000
 N                 -2.11516900   -0.26059200    1.88629400
 C                 -3.01800700    0.66875300    2.58733200
 H                 -1.12635600    0.01897600    1.69627200
 C                 -3.99960800    1.34585200    1.64331700
 H                 -3.63698500    0.10131300    3.32390000
 C                 -2.16988400    1.69876300    3.34565500
 H                 -2.82184300    2.37783700    3.93563900
 O                 -5.15828000    1.48763100    1.99322800
 H                 -1.56743100    2.30879300    2.63591600
 H                 -1.46838300    1.18322600    4.03586400
 N                 -3.59787200    1.83282500    0.44544000
 C                 -4.50286300    2.54352600   -0.47427600
 H                 -2.61028800    1.64469200    0.16074200
 C                 -5.48745600    1.60696700   -1.15704700
 H                 -5.11930300    3.27530100    0.10209400
 C                 -3.65729400    3.31090300   -1.49971500
 H                 -4.31094400    3.90785500   -2.17106600
 O                 -6.64683400    1.95806900   -1.28854500
 H                 -3.05740700    2.60659100   -2.11849200
 H                 -2.95364900    3.99569200   -0.97990500
 N                 -5.08836000    0.41460900   -1.65946500
 C                 -5.99853200   -0.49810100   -2.37273600
 H                 -4.09935900    0.12835300   -1.48117700
 C                 -6.97669300   -1.18982900   -1.43578100
 H                 -6.62006100    0.08548000   -3.09449400
 C                 -5.15849600   -1.51602200   -3.15599300
 H                 -5.81648400   -2.18223300   -3.75393400
 O                 -8.13828300   -1.31984800   -1.78043600
 H                 -4.55266900   -2.14073200   -2.46210400
 H                 -4.46078400   -0.98941200   -3.84165200
 N                 -6.56955900   -1.70154000   -0.25008900
 C                 -7.47370500   -2.42281700    0.66224200
 H                 -5.57895100   -1.52451200    0.03149200
 C                 -8.45595300   -1.49384700    1.35880100
 H                 -8.09204400   -3.14609600    0.07727900
 C                 -6.62760200   -3.20430300    1.67646300
 H                 -7.28077200   -3.80976700    2.34057000
 O                 -9.61421900   -1.84766200    1.49304300
 H                 -6.02679600   -2.50842800    2.30380600
 H                 -5.92472700   -3.88242500    1.14691700
 N                 -8.05553500   -0.30599500    1.87070800
 C                 -8.96184400    0.59775900    2.60011500
 H                 -7.06814400   -0.01633200    1.68858300
 C                 -9.94320400    1.30347100    1.67697900
 H                 -9.58091100    0.00539300    3.31674800
 C                 -8.11697300    1.60414500    3.39315200
 H                 -8.77125200    2.26360600    4.00255300
 O                -11.10393300    1.42697200    2.02714800
 H                 -7.51289300    2.23693400    2.70499500
 H                 -7.41687300    1.06765400    4.06867400
 N                 -9.53860300    1.83550600    0.49933700
 C                -10.43977600    2.58227100   -0.39553800
 H                 -8.54946100    1.66065000    0.21186200
 C                -11.41994500    1.67491300   -1.12276900
 H                -11.06084600    3.28891800    0.20672100
 C                 -9.58955600    3.39222900   -1.38369800
 H                -10.24069500    4.01593300   -2.03298000
 O                -12.57326800    2.04165800   -1.26443100
 H                 -8.98654400    2.71445300   -2.02850000
 H                 -8.88933200    4.05557800   -0.83253500
 N                -11.02247100    0.49389400   -1.65342600
 C                -11.92845400   -0.39266600   -2.40441000
 H                -10.03805100    0.19548300   -1.47054200
 C                -12.89934000   -1.13036000   -1.49581200
 H                -12.55681800    0.21690400   -3.09890000
 C                -11.08361800   -1.36928000   -3.23371300
 H                -11.73935200   -2.01134700   -3.86005200
 O                -14.06354600   -1.24243200   -1.83658800
 H                -10.47253000   -2.02118700   -2.57049100
 H                -10.39143700   -0.80758700   -3.89669200
 N                -12.48508400   -1.69649800   -0.33696300
 C                -13.39363000   -2.43111200    0.56093100
 H                -11.49000000   -1.53968800   -0.05861900
 C                -14.40142100   -1.51179600    1.23339900
 H                -13.98860600   -3.16466100   -0.03548700
 C                -12.55560700   -3.19540900    1.59495100
 H                -13.21137100   -3.80747700    2.25062800
 O                -15.56799600   -1.85839100    1.30643300
 H                -11.97531300   -2.48880200    2.22961700
 H                -11.83310300   -3.86617700    1.08239000
 N                -14.01790000   -0.32593000    1.76518300
 C                -14.95380100    0.60102600    2.42580900
 H                -13.01923500   -0.04672400    1.63019600
 C                -15.96721300    1.18457800    1.45321000
 H                -15.54345000    0.04562700    3.19607400
 C                -14.14370100    1.70665500    3.11745100
 H                -14.81801300    2.40236000    3.66164200
 O                -17.13875200    1.24636600    1.78226500
 H                -13.55537500    2.28748500    2.37126700
 H                -13.42711400    1.26176500    3.84116600
 N                -15.58418000    1.64235300    0.23572600
 C                -16.53465600    2.17938400   -0.75554600
 H                -14.58356800    1.50263300   -0.03298800
 C                -17.44288200    1.11085800   -1.35616500
 H                -17.22207000    2.90205300   -0.25130400
 C                -15.73808800    2.91378600   -1.84250800
 H                -16.42502800    3.37606400   -2.58398100
 O                -18.47703100    1.45966200   -1.89800600
 H                -15.06240000    2.20406500   -2.37197300
 H                -15.10948700    3.70884000   -1.38711100
 N                -17.12115400   -0.20588800   -1.31245000
 C                -18.04146000   -1.27123600   -1.74200600
 H                -16.20983500   -0.46905400   -0.87715200
 C                -19.17943000   -1.46959800   -0.75192600
 H                -18.51548200   -0.99025400   -2.71482900
 C                -17.23320400   -2.56222600   -1.93397000
 H                -17.88855500   -3.38077200   -2.30100800
 O                -20.30752600   -1.66340900   -1.16282800
 H                -16.76699800   -2.87384800   -0.97290800
 H                -16.41908300   -2.39172200   -2.67237700
 N                -18.96265100   -1.46750100    0.57490700
 H                -18.01572100   -1.25779000    0.95496300
 H                -19.76801600   -1.57886100    1.22369900

 1 2 1.0 3 1.0 4 1.0 5 1.0
 2 6 2.0 7 1.5
 3
 4
 5
 6
 7 8 1.0 9 1.0
 8 10 1.0 11 1.0 12 1.0
 9
 10 14 2.0 17 1.5
 11
 12 13 1.0 15 1.0 16 1.0
 13
 14
 15
 16
 17 18 1.0 19 1.0
 18 20 1.0 21 1.0 22 1.0
 19
 20 24 2.0 27 1.5
 21
 22 23 1.0 25 1.0 26 1.0
 23
 24
 25
 26
 27 28 1.0 29 1.0
 28 30 1.0 31 1.0 32 1.0
 29
 30 34 2.0 37 1.5
 31
 32 33 1.0 35 1.0 36 1.0
 33
 34
 35
 36
 37 38 1.0 39 1.0
 38
 39 40 1.0 41 1.0 42 1.0
 40 44 2.0 47 1.5
 41
 42 43 1.0 45 1.0 46 1.0
 43
 44
 45
 46
 47 48 1.0 49 1.0
 48 50 1.0 51 1.0 52 1.0
 49
 50 54 2.0 57 1.5
 51
 52 53 1.0 55 1.0 56 1.0
 53
 54
 55
 56
 57 58 1.0 59 1.0
 58 60 1.0 61 1.0 62 1.0
 59
 60 64 2.0 67 1.5
 61
 62 63 1.0 65 1.0 66 1.0
 63
 64
 65
 66
 67 68 1.0 69 1.0
 68 70 1.0 71 1.0 72 1.0
 69
 70 74 2.0 77 1.5
 71
 72 73 1.0 75 1.0 76 1.0
 73
 74
 75
 76
 77 78 1.0 79 1.0
 78 80 1.0 81 1.0 82 1.0
 79
 80 84 2.0 87 1.5
 81
 82 83 1.0 85 1.0 86 1.0
 83
 84
 85
 86
 87 88 1.0 89 1.0
 88 90 1.0 91 1.0 92 1.0
 89
 90 94 2.0 97 1.5
 91
 92 93 1.0 95 1.0 96 1.0
 93
 94
 95
 96
 97 98 1.0 99 1.0
 98 100 1.0 101 1.0 102 1.0
 99
 100 104 2.0 107 1.5
 101
 102 103 1.0 105 1.0 106 1.0
 103
 104
 105
 106
 107 108 1.0 109 1.0
 108 110 1.0 111 1.0 112 1.0
 109
 110 114 2.0 117 1.5
 111
 112 113 1.0 115 1.0 116 1.0
 113
 114
 115
 116
 117 118 1.0 119 1.0
 118 120 1.0 121 1.0 122 1.0
 119
 120 124 2.0 127 1.5
 121
 122 123 1.0 125 1.0 126 1.0
 123
 124
 125
 126
 127 128 1.0 129 1.0
 128 130 1.0 131 1.0 132 1.0
 129
 130 134 2.0 137 1.5
 131
 132 133 1.0 135 1.0 136 1.0
 133
 134
 135
 136
 137 138 1.0 139 1.0
 138 140 1.0 141 1.0 142 1.0
 139
 140 144 2.0 147 1.5
 141
 142 143 1.0 145 1.0 146 1.0
 143
 144
 145
 146
 147 148 1.0 149 1.0
 148 150 1.0 151 1.0 152 1.0
 149
 150 154 2.0 157 1.5
 151
 152 153 1.0 155 1.0 156 1.0
 153
 154
 155
 156
 157 158 1.0 159 1.0
 158 160 1.0 161 1.0 162 1.0
 159
 160 164 2.0 167 1.5
 161
 162 163 1.0 165 1.0 166 1.0
 163
 164
 165
 166
 167 168 1.0 169 1.0
 168 170 1.0 171 1.0 172 1.0
 169
 170 174 2.0 177 1.5
 171
 172 173 1.0 175 1.0 176 1.0
 173
 174
 175
 176
 177 178 1.0 179 1.0
 178 180 1.0 181 1.0 182 1.0
 179
 180 184 2.0 187 1.5
 181
 182 183 1.0 185 1.0 186 1.0
 183
 184
 185
 186
 187 188 1.0 189 1.0
 188 190 1.0 191 1.0 192 1.0
 189
 190 194 2.0 197 1.5
 191
 192 193 1.0 195 1.0 196 1.0
 193
 194
 195
 196
 197 198 1.0 199 1.0
 198 200 1.0 201 1.0 202 1.0
 199
 200 204 2.0 207 1.5
 201
 202 203 1.0 205 1.0 206 1.0
 203
 204
 205
 206
 207 208 1.0 209 1.0
 208 210 1.0 211 1.0 212 1.0
 209
 210 214 2.0 217 1.5
 211
 212 213 1.0 215 1.0 216 1.0
 213
 214
 215
 216
 217 218 1.0 219 1.0
 218 220 1.0 221 1.0 222 1.0
 219
 220 224 2.0 227 1.5
 221
 222 223 1.0 225 1.0 226 1.0
 223
 224
 225
 226
 227 228 1.0 229 1.0
 228 230 1.0 231 1.0 232 1.0
 229
 230 234 2.0 237 1.5
 231
 232 233 1.0 235 1.0 236 1.0
 233
 234
 235
 236
 237 238 1.0 239 1.0
 238 240 1.0 241 1.0 242 1.0
 239
 240 244 2.0 247 1.5
 241
 242 243 1.0 245 1.0 246 1.0
 243
 244
 245
 246
 247 248 1.0 249 1.0
 248 250 1.0 251 1.0 252 1.0
 249
 250 254 2.0 257 1.5
 251
 252 253 1.0 255 1.0 256 1.0
 253
 254
 255
 256
 257 258 1.0 259 1.0
 258
 259

--link1--
%Chk=x2_14_ala25
#p APFD/6-31g(d) geom=allcheck guess=read iop1=timestamp scf=novaracc Int=(UltraFine,Acc2E=12)

