%Chk=x2_14_ala50
#p APFD/3-21G  iop1=timestamp scf=novaracc Int=(UltraFine,Acc2E=12)

Ac(Ala)50NH2 Dimer

0 1
  C             18.484421000000      0.843709000000     -2.409969000000
  C             17.485909000000     -0.204193000000     -1.894014000000
  H             18.097086000000      1.842459000000     -2.193047000000
  H             18.550314000000      0.745370000000     -3.498334000000
  H             19.488543000000      0.740472000000     -1.987062000000
  O             16.280334000000     -0.104145000000     -2.154315000000
  N             17.979717000000     -1.258346000000     -1.202806000000
  C             17.059281000000     -2.302986000000     -0.768600000000
  H             18.962712000000     -1.325791000000     -0.940404000000
  C             16.066443000000     -1.790499000000      0.286432000000
  H             16.426687000000     -2.573298000000     -1.618625000000
  C             17.808164000000     -3.541537000000     -0.265386000000
  H             17.083768000000     -4.302114000000      0.042464000000
  O             14.861442000000     -2.056714000000      0.196094000000
  H             18.460596000000     -3.302822000000      0.577448000000
  H             18.431326000000     -3.955869000000     -1.063965000000
  N             16.565463000000     -1.096952000000      1.336406000000
  C             15.649981000000     -0.663151000000      2.385909000000
  H             17.548000000000     -0.831168000000      1.396607000000
  C             14.652155000000      0.389557000000      1.877806000000
  H             15.020336000000     -1.514126000000      2.659830000000
  C             16.404506000000     -0.156685000000      3.619531000000
  H             15.683659000000      0.147757000000      4.384853000000
  O             13.448486000000      0.295499000000      2.148948000000
  H             17.050816000000      0.689496000000      3.376337000000
  H             17.034367000000     -0.952048000000      4.029892000000
  N             15.144909000000      1.441054000000      1.181607000000
  C             14.223954000000      2.487741000000      0.752690000000
  H             16.125815000000      1.504200000000      0.910187000000
  C             13.220847000000      1.976615000000     -0.293296000000
  H             13.599218000000      2.760590000000      1.607701000000
  C             14.970562000000      3.724060000000      0.240863000000
  H             14.244290000000      4.487573000000     -0.055119000000
  O             12.017908000000      2.248750000000     -0.193875000000
  H             15.609135000000      3.484597000000     -0.612229000000
  H             15.607102000000      4.134974000000      1.030560000000
  N             13.708843000000      1.277008000000     -1.344699000000
  H             14.689973000000      1.007449000000     -1.411165000000
  C             12.785495000000      0.845677000000     -2.388290000000
  C             11.786982000000     -0.202225000000     -1.872335000000
  H             12.157929000000      1.698942000000     -2.659854000000
  C             13.531101000000      0.333906000000     -3.625186000000
  H             12.804998000000      0.029995000000     -4.385698000000
  O             10.581408000000     -0.102177000000     -2.132636000000
  H             14.175886000000     -0.513684000000     -3.383050000000
  H             14.161693000000      1.125991000000     -4.040497000000
  N             12.280790000000     -1.256378000000     -1.181127000000
  C             11.360355000000     -2.301018000000     -0.746921000000
  H             13.263785000000     -1.323823000000     -0.918725000000
  C             10.367517000000     -1.788531000000      0.308111000000
  H             10.727760000000     -2.571330000000     -1.596946000000
  C             12.109238000000     -3.539569000000     -0.243707000000
  H             11.384842000000     -4.300146000000      0.064143000000
  O              9.162515000000     -2.054746000000      0.217773000000
  H             12.761670000000     -3.300854000000      0.599127000000
  H             12.732400000000     -3.953901000000     -1.042286000000
  N             10.866537000000     -1.094984000000      1.358085000000
  C              9.951055000000     -0.661183000000      2.407588000000
  H             11.849074000000     -0.829200000000      1.418286000000
  C              8.953229000000      0.391525000000      1.899485000000
  H              9.321410000000     -1.512158000000      2.681509000000
  C             10.705580000000     -0.154717000000      3.641210000000
  H              9.984733000000      0.149725000000      4.406532000000
  O              7.749559000000      0.297467000000      2.170627000000
  H             11.351889000000      0.691464000000      3.398016000000
  H             11.335441000000     -0.950080000000      4.051571000000
  N              9.445982000000      1.443022000000      1.203286000000
  C              8.525027000000      2.489709000000      0.774369000000
  H             10.426889000000      1.506168000000      0.931866000000
  C              7.521921000000      1.978583000000     -0.271617000000
  H              7.900292000000      2.762558000000      1.629380000000
  C              9.271636000000      3.726028000000      0.262542000000
  H              8.545363000000      4.489541000000     -0.033440000000
  O              6.318982000000      2.250718000000     -0.172196000000
  H              9.910210000000      3.486565000000     -0.590549000000
  H              9.908175000000      4.136942000000      1.052239000000
  N              8.009917000000      1.278976000000     -1.323020000000
  C              7.086568000000      0.847645000000     -2.366611000000
  H              8.991046000000      1.009417000000     -1.389486000000
  C              6.088056000000     -0.200257000000     -1.850655000000
  H              6.459002000000      1.700910000000     -2.638175000000
  C              7.832176000000      0.335874000000     -3.603507000000
  H              7.106072000000      0.031963000000     -4.364019000000
  O              4.882482000000     -0.100209000000     -2.110957000000
  H              8.476960000000     -0.511716000000     -3.361371000000
  H              8.462766000000      1.127959000000     -4.018818000000
  N              6.581865000000     -1.254410000000     -1.159448000000
  C              5.661429000000     -2.299050000000     -0.725242000000
  H              7.564859000000     -1.321855000000     -0.897046000000
  C              4.668590000000     -1.786563000000      0.329790000000
  H              5.028834000000     -2.569362000000     -1.575267000000
  C              6.410311000000     -3.537601000000     -0.222028000000
  H              5.685915000000     -4.298178000000      0.085823000000
  O              3.463589000000     -2.052778000000      0.239453000000
  H              7.062744000000     -3.298886000000      0.620806000000
  H              7.033474000000     -3.951933000000     -1.020607000000
  N              5.167611000000     -1.093016000000      1.379764000000
  C              4.252128000000     -0.659215000000      2.429267000000
  H              6.150148000000     -0.827232000000      1.439965000000
  C              3.254302000000      0.393493000000      1.921164000000
  H              3.622484000000     -1.510190000000      2.703188000000
  C              5.006653000000     -0.152749000000      3.662890000000
  H              4.285806000000      0.151693000000      4.428211000000
  O              2.050633000000      0.299435000000      2.192307000000
  H              5.652963000000      0.693432000000      3.419695000000
  H              5.636514000000     -0.948112000000      4.073250000000
  N              3.747057000000      1.444990000000      1.224965000000
  C              2.826101000000      2.491677000000      0.796048000000
  H              4.727962000000      1.508136000000      0.953545000000
  C              1.822994000000      1.980551000000     -0.249937000000
  H              2.201365000000      2.764526000000      1.651059000000
  C              3.572709000000      3.727996000000      0.284221000000
  H              2.846437000000      4.491509000000     -0.011761000000
  O              0.620056000000      2.252686000000     -0.150517000000
  H              4.211283000000      3.488533000000     -0.568870000000
  H              4.209250000000      4.138910000000      1.073918000000
  N              2.310991000000      1.280944000000     -1.301341000000
  C              1.387642000000      0.849613000000     -2.344932000000
  H              3.292120000000      1.011385000000     -1.367807000000
  C              0.389130000000     -0.198289000000     -1.828976000000
  H              0.760076000000      1.702878000000     -2.616495000000
  C              2.133250000000      0.337842000000     -3.581828000000
  H              1.407145000000      0.033931000000     -4.342340000000
  O             -0.816445000000     -0.098241000000     -2.089278000000
  H              2.778034000000     -0.509748000000     -3.339692000000
  H              2.763840000000      1.129927000000     -3.997139000000
  N              0.882939000000     -1.252442000000     -1.137769000000
  C             -0.037497000000     -2.297082000000     -0.703563000000
  H              1.865933000000     -1.319887000000     -0.875367000000
  C             -1.030336000000     -1.784595000000      0.351469000000
  H             -0.670093000000     -2.567394000000     -1.553588000000
  C              0.711386000000     -3.535633000000     -0.200349000000
  H             -0.013011000000     -4.296210000000      0.107502000000
  O             -2.235337000000     -2.050810000000      0.261132000000
  H              1.363818000000     -3.296918000000      0.642485000000
  H              1.334547000000     -3.949965000000     -0.998928000000
  N             -0.531315000000     -1.091048000000      1.401443000000
  C             -1.446798000000     -0.657247000000      2.450946000000
  H              0.451221000000     -0.825264000000      1.461644000000
  C             -2.444624000000      0.395461000000      1.942843000000
  H             -2.076443000000     -1.508222000000      2.724867000000
  C             -0.692273000000     -0.150781000000      3.684569000000
  H             -1.413120000000      0.153661000000      4.449890000000
  O             -3.648294000000      0.301403000000      2.213986000000
  H             -0.045963000000      0.695400000000      3.441375000000
  H             -0.062412000000     -0.946143000000      4.094929000000
  N             -1.951870000000      1.446958000000      1.246644000000
  C             -2.872825000000      2.493645000000      0.817727000000
  H             -0.970964000000      1.510104000000      0.975224000000
  C             -3.875932000000      1.982519000000     -0.228258000000
  H             -3.497561000000      2.766494000000      1.672738000000
  C             -2.126217000000      3.729964000000      0.305900000000
  H             -2.852490000000      4.493477000000      0.009919000000
  O             -5.078871000000      2.254654000000     -0.128838000000
  H             -1.487643000000      3.490501000000     -0.547191000000
  H             -1.489677000000      4.140878000000      1.095597000000
  N             -3.387936000000      1.282912000000     -1.279662000000
  C             -4.311284000000      0.851581000000     -2.323253000000
  H             -2.406807000000      1.013353000000     -1.346127000000
  C             -5.309797000000     -0.196321000000     -1.807297000000
  H             -4.938850000000      1.704846000000     -2.594816000000
  C             -3.565677000000      0.339810000000     -3.560149000000
  H             -4.291781000000      0.035899000000     -4.320661000000
  O             -6.515371000000     -0.096273000000     -2.067599000000
  H             -2.920893000000     -0.507780000000     -3.318013000000
  H             -2.935087000000      1.131895000000     -3.975460000000
  N             -4.815988000000     -1.250474000000     -1.116090000000
  C             -5.736424000000     -2.295114000000     -0.681884000000
  H             -3.832994000000     -1.317919000000     -0.853688000000
  C             -6.729263000000     -1.782627000000      0.373148000000
  H             -6.369019000000     -2.565426000000     -1.531909000000
  C             -4.987541000000     -3.533665000000     -0.178670000000
  H             -5.711937000000     -4.294242000000      0.129181000000
  O             -7.934264000000     -2.048842000000      0.282811000000
  H             -4.335108000000     -3.294950000000      0.664164000000
  H             -4.364379000000     -3.947997000000     -0.977249000000
  N             -6.230241000000     -1.089080000000      1.423122000000
  C             -7.145725000000     -0.655279000000      2.472625000000
  H             -5.247705000000     -0.823296000000      1.483323000000
  C             -8.143549000000      0.397429000000      1.964522000000
  H             -7.775369000000     -1.506254000000      2.746546000000
  C             -6.391200000000     -0.148813000000      3.706248000000
  H             -7.112046000000      0.155629000000      4.471569000000
  O             -9.347220000000      0.303371000000      2.235665000000
  H             -5.744890000000      0.697368000000      3.463054000000
  H             -5.761339000000     -0.944175000000      4.116608000000
  N             -7.650796000000      1.448926000000      1.268323000000
  C             -8.571751000000      2.495613000000      0.839406000000
  H             -6.669891000000      1.512072000000      0.996903000000
  C             -9.574859000000      1.984487000000     -0.206579000000
  H             -9.196488000000      2.768462000000      1.694418000000
  C             -7.825143000000      3.731932000000      0.327579000000
  H             -8.551416000000      4.495445000000      0.031598000000
  O            -10.777797000000      2.256623000000     -0.107159000000
  H             -7.186570000000      3.492469000000     -0.525512000000
  H             -7.188603000000      4.142846000000      1.117276000000
  N             -9.086862000000      1.284880000000     -1.257983000000
  C            -10.010210000000      0.853549000000     -2.301574000000
  H             -8.105733000000      1.015321000000     -1.324448000000
  C            -11.008722000000     -0.194353000000     -1.785618000000
  H            -10.637777000000      1.706814000000     -2.573137000000
  C             -9.264603000000      0.341778000000     -3.538470000000
  H             -9.990707000000      0.037867000000     -4.298982000000
  O            -12.214298000000     -0.094305000000     -2.045920000000
  H             -8.619819000000     -0.505812000000     -3.296334000000
  H             -8.634013000000      1.133863000000     -3.953781000000
  N            -10.514914000000     -1.248506000000     -1.094411000000
  C            -11.435350000000     -2.293146000000     -0.660205000000
  H             -9.531920000000     -1.315951000000     -0.832009000000
  C            -12.428189000000     -1.780659000000      0.394828000000
  H            -12.067946000000     -2.563458000000     -1.510230000000
  C            -10.686467000000     -3.531697000000     -0.156991000000
  H            -11.410864000000     -4.292274000000      0.150860000000
  O            -13.633190000000     -2.046874000000      0.304490000000
  H            -10.034035000000     -3.292982000000      0.685843000000
  H            -10.063305000000     -3.946029000000     -0.955570000000
  N            -11.929168000000     -1.087112000000      1.444801000000
  C            -12.844651000000     -0.653311000000      2.494304000000
  H            -10.946632000000     -0.821328000000      1.505002000000
  C            -13.842476000000      0.399397000000      1.986201000000
  H            -13.474296000000     -1.504286000000      2.768225000000
  C            -12.090126000000     -0.146845000000      3.727927000000
  H            -12.810973000000      0.157597000000      4.493248000000
  O            -15.046147000000      0.305339000000      2.257344000000
  H            -11.443816000000      0.699336000000      3.484733000000
  H            -11.460265000000     -0.942207000000      4.138287000000
  N            -13.349722000000      1.450894000000      1.290002000000
  C            -14.270677000000      2.497581000000      0.861085000000
  H            -12.368817000000      1.514040000000      1.018582000000
  C            -15.273785000000      1.986455000000     -0.184900000000
  H            -14.895414000000      2.770430000000      1.716097000000
  C            -13.524069000000      3.733900000000      0.349259000000
  H            -14.250342000000      4.497413000000      0.053277000000
  O            -16.476724000000      2.258591000000     -0.085480000000
  H            -12.885496000000      3.494437000000     -0.503833000000
  H            -12.887529000000      4.144814000000      1.138955000000
  N            -14.785789000000      1.286848000000     -1.236304000000
  C            -15.709136000000      0.855517000000     -2.279895000000
  H            -13.804658000000      1.017289000000     -1.302769000000
  C            -16.707649000000     -0.192385000000     -1.763939000000
  H            -16.336703000000      1.708782000000     -2.551458000000
  C            -14.963530000000      0.343746000000     -3.516791000000
  H            -15.689633000000      0.039835000000     -4.277303000000
  O            -17.913224000000     -0.092337000000     -2.024241000000
  H            -14.318746000000     -0.503844000000     -3.274655000000
  H            -14.332939000000      1.135831000000     -3.932101000000
  N            -16.213841000000     -1.246538000000     -1.072732000000
  C            -17.134276000000     -2.291178000000     -0.638526000000
  H            -15.230847000000     -1.313983000000     -0.810330000000
  C            -18.127115000000     -1.778691000000      0.416507000000
  H            -17.766872000000     -2.561490000000     -1.488551000000
  C            -16.385393000000     -3.529729000000     -0.135312000000
  H            -17.109790000000     -4.290306000000      0.172539000000
  O            -19.332117000000     -2.044906000000      0.326169000000
  H            -15.732961000000     -3.291014000000      0.707522000000
  H            -15.762232000000     -3.944061000000     -0.933891000000
  N            -17.628094000000     -1.085143000000      1.466480000000
  H            -16.705508000000     -0.658655000000      1.461067000000
  H            -18.318878000000     -0.635423000000      2.051176000000
  C             66.484421000000      0.843709000000     -2.409969000000
  C             65.485909000000     -0.204193000000     -1.894014000000
  H             66.097086000000      1.842459000000     -2.193047000000
  H             66.550314000000      0.745370000000     -3.498334000000
  H             67.488543000000      0.740472000000     -1.987062000000
  O             64.280334000000     -0.104145000000     -2.154315000000
  N             65.979717000000     -1.258346000000     -1.202806000000
  C             65.059281000000     -2.302986000000     -0.768600000000
  H             66.962712000000     -1.325791000000     -0.940404000000
  C             64.066443000000     -1.790499000000      0.286432000000
  H             64.426687000000     -2.573298000000     -1.618625000000
  C             65.808164000000     -3.541537000000     -0.265386000000
  H             65.083768000000     -4.302114000000      0.042464000000
  O             62.861442000000     -2.056714000000      0.196094000000
  H             66.460596000000     -3.302822000000      0.577448000000
  H             66.431326000000     -3.955869000000     -1.063965000000
  N             64.565463000000     -1.096952000000      1.336406000000
  C             63.649981000000     -0.663151000000      2.385909000000
  H             65.548000000000     -0.831168000000      1.396607000000
  C             62.652155000000      0.389557000000      1.877806000000
  H             63.020336000000     -1.514126000000      2.659830000000
  C             64.404506000000     -0.156685000000      3.619531000000
  H             63.683659000000      0.147757000000      4.384853000000
  O             61.448486000000      0.295499000000      2.148948000000
  H             65.050816000000      0.689496000000      3.376337000000
  H             65.034367000000     -0.952048000000      4.029892000000
  N             63.144909000000      1.441054000000      1.181607000000
  C             62.223954000000      2.487741000000      0.752690000000
  H             64.125815000000      1.504200000000      0.910187000000
  C             61.220847000000      1.976615000000     -0.293296000000
  H             61.599218000000      2.760590000000      1.607701000000
  C             62.970562000000      3.724060000000      0.240863000000
  H             62.244290000000      4.487573000000     -0.055119000000
  O             60.017908000000      2.248750000000     -0.193875000000
  H             63.609135000000      3.484597000000     -0.612229000000
  H             63.607102000000      4.134974000000      1.030560000000
  N             61.708843000000      1.277008000000     -1.344699000000
  H             62.689973000000      1.007449000000     -1.411165000000
  C             60.785495000000      0.845677000000     -2.388290000000
  C             59.786982000000     -0.202225000000     -1.872335000000
  H             60.157929000000      1.698942000000     -2.659854000000
  C             61.531101000000      0.333906000000     -3.625186000000
  H             60.804998000000      0.029995000000     -4.385698000000
  O             58.581408000000     -0.102177000000     -2.132636000000
  H             62.175886000000     -0.513684000000     -3.383050000000
  H             62.161693000000      1.125991000000     -4.040497000000
  N             60.280790000000     -1.256378000000     -1.181127000000
  C             59.360355000000     -2.301018000000     -0.746921000000
  H             61.263785000000     -1.323823000000     -0.918725000000
  C             58.367517000000     -1.788531000000      0.308111000000
  H             58.727760000000     -2.571330000000     -1.596946000000
  C             60.109238000000     -3.539569000000     -0.243707000000
  H             59.384842000000     -4.300146000000      0.064143000000
  O             57.162515000000     -2.054746000000      0.217773000000
  H             60.761670000000     -3.300854000000      0.599127000000
  H             60.732400000000     -3.953901000000     -1.042286000000
  N             58.866537000000     -1.094984000000      1.358085000000
  C             57.951055000000     -0.661183000000      2.407588000000
  H             59.849074000000     -0.829200000000      1.418286000000
  C             56.953229000000      0.391525000000      1.899485000000
  H             57.321410000000     -1.512158000000      2.681509000000
  C             58.705580000000     -0.154717000000      3.641210000000
  H             57.984733000000      0.149725000000      4.406532000000
  O             55.749559000000      0.297467000000      2.170627000000
  H             59.351889000000      0.691464000000      3.398016000000
  H             59.335441000000     -0.950080000000      4.051571000000
  N             57.445982000000      1.443022000000      1.203286000000
  C             56.525027000000      2.489709000000      0.774369000000
  H             58.426889000000      1.506168000000      0.931866000000
  C             55.521921000000      1.978583000000     -0.271617000000
  H             55.900292000000      2.762558000000      1.629380000000
  C             57.271636000000      3.726028000000      0.262542000000
  H             56.545363000000      4.489541000000     -0.033440000000
  O             54.318982000000      2.250718000000     -0.172196000000
  H             57.910210000000      3.486565000000     -0.590549000000
  H             57.908175000000      4.136942000000      1.052239000000
  N             56.009917000000      1.278976000000     -1.323020000000
  C             55.086568000000      0.847645000000     -2.366611000000
  H             56.991046000000      1.009417000000     -1.389486000000
  C             54.088056000000     -0.200257000000     -1.850655000000
  H             54.459002000000      1.700910000000     -2.638175000000
  C             55.832176000000      0.335874000000     -3.603507000000
  H             55.106072000000      0.031963000000     -4.364019000000
  O             52.882482000000     -0.100209000000     -2.110957000000
  H             56.476960000000     -0.511716000000     -3.361371000000
  H             56.462766000000      1.127959000000     -4.018818000000
  N             54.581865000000     -1.254410000000     -1.159448000000
  C             53.661429000000     -2.299050000000     -0.725242000000
  H             55.564859000000     -1.321855000000     -0.897046000000
  C             52.668590000000     -1.786563000000      0.329790000000
  H             53.028834000000     -2.569362000000     -1.575267000000
  C             54.410311000000     -3.537601000000     -0.222028000000
  H             53.685915000000     -4.298178000000      0.085823000000
  O             51.463589000000     -2.052778000000      0.239453000000
  H             55.062744000000     -3.298886000000      0.620806000000
  H             55.033474000000     -3.951933000000     -1.020607000000
  N             53.167611000000     -1.093016000000      1.379764000000
  C             52.252128000000     -0.659215000000      2.429267000000
  H             54.150148000000     -0.827232000000      1.439965000000
  C             51.254302000000      0.393493000000      1.921164000000
  H             51.622484000000     -1.510190000000      2.703188000000
  C             53.006653000000     -0.152749000000      3.662890000000
  H             52.285806000000      0.151693000000      4.428211000000
  O             50.050633000000      0.299435000000      2.192307000000
  H             53.652963000000      0.693432000000      3.419695000000
  H             53.636514000000     -0.948112000000      4.073250000000
  N             51.747057000000      1.444990000000      1.224965000000
  C             50.826101000000      2.491677000000      0.796048000000
  H             52.727962000000      1.508136000000      0.953545000000
  C             49.822994000000      1.980551000000     -0.249937000000
  H             50.201365000000      2.764526000000      1.651059000000
  C             51.572709000000      3.727996000000      0.284221000000
  H             50.846437000000      4.491509000000     -0.011761000000
  O             48.620056000000      2.252686000000     -0.150517000000
  H             52.211283000000      3.488533000000     -0.568870000000
  H             52.209250000000      4.138910000000      1.073918000000
  N             50.310991000000      1.280944000000     -1.301341000000
  C             49.387642000000      0.849613000000     -2.344932000000
  H             51.292120000000      1.011385000000     -1.367807000000
  C             48.389130000000     -0.198289000000     -1.828976000000
  H             48.760076000000      1.702878000000     -2.616495000000
  C             50.133250000000      0.337842000000     -3.581828000000
  H             49.407145000000      0.033931000000     -4.342340000000
  O             47.183555000000     -0.098241000000     -2.089278000000
  H             50.778034000000     -0.509748000000     -3.339692000000
  H             50.763840000000      1.129927000000     -3.997139000000
  N             48.882939000000     -1.252442000000     -1.137769000000
  C             47.962503000000     -2.297082000000     -0.703563000000
  H             49.865933000000     -1.319887000000     -0.875367000000
  C             46.969664000000     -1.784595000000      0.351469000000
  H             47.329907000000     -2.567394000000     -1.553588000000
  C             48.711386000000     -3.535633000000     -0.200349000000
  H             47.986989000000     -4.296210000000      0.107502000000
  O             45.764663000000     -2.050810000000      0.261132000000
  H             49.363818000000     -3.296918000000      0.642485000000
  H             49.334547000000     -3.949965000000     -0.998928000000
  N             47.468685000000     -1.091048000000      1.401443000000
  C             46.553202000000     -0.657247000000      2.450946000000
  H             48.451221000000     -0.825264000000      1.461644000000
  C             45.555376000000      0.395461000000      1.942843000000
  H             45.923557000000     -1.508222000000      2.724867000000
  C             47.307727000000     -0.150781000000      3.684569000000
  H             46.586880000000      0.153661000000      4.449890000000
  O             44.351706000000      0.301403000000      2.213986000000
  H             47.954037000000      0.695400000000      3.441375000000
  H             47.937588000000     -0.946143000000      4.094929000000
  N             46.048130000000      1.446958000000      1.246644000000
  C             45.127175000000      2.493645000000      0.817727000000
  H             47.029036000000      1.510104000000      0.975224000000
  C             44.124068000000      1.982519000000     -0.228258000000
  H             44.502439000000      2.766494000000      1.672738000000
  C             45.873783000000      3.729964000000      0.305900000000
  H             45.147510000000      4.493477000000      0.009919000000
  O             42.921129000000      2.254654000000     -0.128838000000
  H             46.512357000000      3.490501000000     -0.547191000000
  H             46.510323000000      4.140878000000      1.095597000000
  N             44.612064000000      1.282912000000     -1.279662000000
  C             43.688716000000      0.851581000000     -2.323253000000
  H             45.593193000000      1.013353000000     -1.346127000000
  C             42.690203000000     -0.196321000000     -1.807297000000
  H             43.061150000000      1.704846000000     -2.594816000000
  C             44.434323000000      0.339810000000     -3.560149000000
  H             43.708219000000      0.035899000000     -4.320661000000
  O             41.484629000000     -0.096273000000     -2.067599000000
  H             45.079107000000     -0.507780000000     -3.318013000000
  H             45.064913000000      1.131895000000     -3.975460000000
  N             43.184012000000     -1.250474000000     -1.116090000000
  C             42.263576000000     -2.295114000000     -0.681884000000
  H             44.167006000000     -1.317919000000     -0.853688000000
  C             41.270737000000     -1.782627000000      0.373148000000
  H             41.630981000000     -2.565426000000     -1.531909000000
  C             43.012459000000     -3.533665000000     -0.178670000000
  H             42.288063000000     -4.294242000000      0.129181000000
  O             40.065736000000     -2.048842000000      0.282811000000
  H             43.664892000000     -3.294950000000      0.664164000000
  H             43.635621000000     -3.947997000000     -0.977249000000
  N             41.769759000000     -1.089080000000      1.423122000000
  C             40.854275000000     -0.655279000000      2.472625000000
  H             42.752295000000     -0.823296000000      1.483323000000
  C             39.856451000000      0.397429000000      1.964522000000
  H             40.224631000000     -1.506254000000      2.746546000000
  C             41.608800000000     -0.148813000000      3.706248000000
  H             40.887954000000      0.155629000000      4.471569000000
  O             38.652780000000      0.303371000000      2.235665000000
  H             42.255110000000      0.697368000000      3.463054000000
  H             42.238661000000     -0.944175000000      4.116608000000
  N             40.349204000000      1.448926000000      1.268323000000
  C             39.428249000000      2.495613000000      0.839406000000
  H             41.330109000000      1.512072000000      0.996903000000
  C             38.425141000000      1.984487000000     -0.206579000000
  H             38.803512000000      2.768462000000      1.694418000000
  C             40.174857000000      3.731932000000      0.327579000000
  H             39.448584000000      4.495445000000      0.031598000000
  O             37.222203000000      2.256623000000     -0.107159000000
  H             40.813430000000      3.492469000000     -0.525512000000
  H             40.811397000000      4.142846000000      1.117276000000
  N             38.913138000000      1.284880000000     -1.257983000000
  C             37.989790000000      0.853549000000     -2.301574000000
  H             39.894267000000      1.015321000000     -1.324448000000
  C             36.991278000000     -0.194353000000     -1.785618000000
  H             37.362223000000      1.706814000000     -2.573137000000
  C             38.735397000000      0.341778000000     -3.538470000000
  H             38.009293000000      0.037867000000     -4.298982000000
  O             35.785702000000     -0.094305000000     -2.045920000000
  H             39.380181000000     -0.505812000000     -3.296334000000
  H             39.365987000000      1.133863000000     -3.953781000000
  N             37.485086000000     -1.248506000000     -1.094411000000
  C             36.564650000000     -2.293146000000     -0.660205000000
  H             38.468080000000     -1.315951000000     -0.832009000000
  C             35.571811000000     -1.780659000000      0.394828000000
  H             35.932054000000     -2.563458000000     -1.510230000000
  C             37.313533000000     -3.531697000000     -0.156991000000
  H             36.589136000000     -4.292274000000      0.150860000000
  O             34.366810000000     -2.046874000000      0.304490000000
  H             37.965965000000     -3.292982000000      0.685843000000
  H             37.936695000000     -3.946029000000     -0.955570000000
  N             36.070832000000     -1.087112000000      1.444801000000
  C             35.155349000000     -0.653311000000      2.494304000000
  H             37.053368000000     -0.821328000000      1.505002000000
  C             34.157524000000      0.399397000000      1.986201000000
  H             34.525704000000     -1.504286000000      2.768225000000
  C             35.909874000000     -0.146845000000      3.727927000000
  H             35.189027000000      0.157597000000      4.493248000000
  O             32.953853000000      0.305339000000      2.257344000000
  H             36.556184000000      0.699336000000      3.484733000000
  H             36.539735000000     -0.942207000000      4.138287000000
  N             34.650278000000      1.450894000000      1.290002000000
  C             33.729323000000      2.497581000000      0.861085000000
  H             35.631183000000      1.514040000000      1.018582000000
  C             32.726215000000      1.986455000000     -0.184900000000
  H             33.104586000000      2.770430000000      1.716097000000
  C             34.475931000000      3.733900000000      0.349259000000
  H             33.749658000000      4.497413000000      0.053277000000
  O             31.523276000000      2.258591000000     -0.085480000000
  H             35.114504000000      3.494437000000     -0.503833000000
  H             35.112471000000      4.144814000000      1.138955000000
  N             33.214211000000      1.286848000000     -1.236304000000
  C             32.290864000000      0.855517000000     -2.279895000000
  H             34.195342000000      1.017289000000     -1.302769000000
  C             31.292351000000     -0.192385000000     -1.763939000000
  H             31.663297000000      1.708782000000     -2.551458000000
  C             33.036470000000      0.343746000000     -3.516791000000
  H             32.310367000000      0.039835000000     -4.277303000000
  O             30.086776000000     -0.092337000000     -2.024241000000
  H             33.681254000000     -0.503844000000     -3.274655000000
  H             33.667061000000      1.135831000000     -3.932101000000
  N             31.786159000000     -1.246538000000     -1.072732000000
  C             30.865724000000     -2.291178000000     -0.638526000000
  H             32.769153000000     -1.313983000000     -0.810330000000
  C             29.872885000000     -1.778691000000      0.416507000000
  H             30.233128000000     -2.561490000000     -1.488551000000
  C             31.614607000000     -3.529729000000     -0.135312000000
  H             30.890210000000     -4.290306000000      0.172539000000
  O             28.667883000000     -2.044906000000      0.326169000000
  H             32.267039000000     -3.291014000000      0.707522000000
  H             32.237768000000     -3.944061000000     -0.933891000000
  N             30.371906000000     -1.085143000000      1.466480000000
  H             31.294492000000     -0.658655000000      1.461067000000
  H             29.681122000000     -0.635423000000      2.051176000000

--link1--
%Chk=x2_14_ala50
#p APFD 6-31g(d) guess=read geom=allcheck iop1=timestamp  scf=novaracc Int=(UltraFine,Acc2E=12)

