%Chk=x2_14_ala17
#p APFD/3-21g geom=connectivity iop1=timestamp scf=novaracc Int=(UltraFine,Acc2E=12)

Ac(Ala)17NH2

0 1
 C                 13.00279900    2.57408700   -0.04030900
 C                 12.26107500    1.66456000   -0.94348500
 H                 12.32926100    2.88976200    0.77829300
 H                 13.31060100    3.46503600   -0.62123300
 H                 13.90068100    2.08496200    0.38544800
 O                 11.24421400    2.06775900   -1.46935700
 N                 12.69724900    0.40564100   -1.17425400
 C                 11.99815300   -0.52494100   -2.07723500
 H                 13.54980200    0.07579800   -0.67186700
 C                 10.91460300   -1.30203700   -1.34851900
 H                 11.47839200    0.04628700   -2.88526000
 C                 13.03618000   -1.45169700   -2.72692900
 H                 12.54009100   -2.12978600   -3.45466800
 O                  9.78718900   -1.33401800   -1.81246100
 H                 13.54984200   -2.06837900   -1.95948700
 H                 13.79486600   -0.84540100   -3.26677900
 N                 11.18178800   -1.95916800   -0.19218300
 C                 10.12858100   -2.60221100    0.61126000
 H                 12.14561000   -1.88112900    0.19797500
 C                  9.29146000   -1.60123400    1.40207300
 H                  9.41105200   -3.12046400   -0.06846100
 C                 10.78060000   -3.64618300    1.52792800
 H                  9.99879300   -4.19279100    2.09939100
 O                  8.18806600   -1.94303200    1.79171500
 H                 11.46533900   -3.15296900    2.25061800
 H                 11.35690000   -4.37786300    0.92240000
 N                  9.74221000   -0.35213000    1.68638900
 C                  8.93714600    0.63846500    2.42073900
 H                 10.67099500   -0.06610200    1.30858100
 C                  7.93376800    1.33404300    1.51485800
 H                  8.33981400    0.12742300    3.21492600
 C                  9.88695400    1.64130500    3.09105200
 H                  9.30692200    2.36445100    3.70477000
 O                  6.78539300    1.47909400    1.89650000
 H                 10.46120400    2.20699600    2.32731500
 H                 10.59884300    1.10413900    3.75372600
 N                  8.30274100    1.81480900    0.30356300
 H                  9.28273800    1.62821600   -0.00679500
 C                  7.36045900    2.46876000   -0.61995400
 C                  6.38461500    1.48045400   -1.23985100
 H                  6.74059000    3.20850000   -0.05808300
 C                  8.16584100    3.21039400   -1.69575500
 H                  7.48486200    3.75321500   -2.38552000
 O                  5.22174200    1.80978300   -1.39300300
 H                  8.78278300    2.49691000   -2.28774500
 H                  8.85591700    3.94100800   -1.22159000
 N                  6.79511800    0.25908000   -1.65571200
 C                  5.89733300   -0.71450500   -2.29964800
 H                  7.79405900    0.00854200   -1.48315900
 C                  4.90681400   -1.32836100   -1.32146100
 H                  5.28492300   -0.19623800   -3.07697700
 C                  6.75192000   -1.79143700   -2.98269500
 H                  6.10436400   -2.52083300   -3.51474900
 O                  3.74787400   -1.47752200   -1.66758400
 H                  7.36979300   -2.33632600   -2.23506300
 H                  7.44220000   -1.32191900   -3.71649500
 N                  5.29847400   -1.75348800   -0.09620100
 C                  4.37855700   -2.40743100    0.85141000
 H                  6.28277500   -1.55115300    0.19126600
 C                  3.41279500   -1.42370200    1.49334400
 H                  3.74732300   -3.14996400    0.30544000
 C                  5.20591500   -3.14947400    1.90928400
 H                  4.53935900   -3.71732500    2.59301700
 O                  2.24952300   -1.75009600    1.65063400
 H                  5.80585900   -2.43212000    2.51260500
 H                  5.90808400   -3.85825600    1.42056000
 N                  3.83367100   -0.21424200    1.93239400
 C                  2.94469200    0.74934800    2.60376300
 H                  4.82660500    0.04432000    1.73691600
 C                  1.95937700    1.39596200    1.64209100
 H                  2.32848800    0.21679100    3.36818300
 C                  3.80963400    1.80177800    3.31128500
 H                  3.16915400    2.51964900    3.86701600
 O                  0.80352100    1.55541300    1.99379500
 H                  4.42381700    2.36525400    2.57340900
 H                  4.50200400    1.30873300    4.02685200
 N                  2.35537300    1.83651700    0.42456000
 C                  1.44878000    2.51900300   -0.51460300
 H                  3.33885600    1.62975200    0.13952900
 C                  0.46355100    1.56219900   -1.16735300
 H                  0.83291200    3.26773400    0.04029700
 C                  2.29243800    3.25562600   -1.56387400
 H                  1.63756600    3.83385500   -2.25028800
 O                 -0.69577100    1.90965800   -1.30824700
 H                  2.88956100    2.53329000   -2.16428700
 H                  2.99820900    3.95432900   -1.06598800
 N                  0.86148400    0.35479600   -1.63370600
 C                 -0.05123500   -0.57879700   -2.31627400
 H                  1.85137300    0.07411200   -1.45056600
 C                 -1.03487500   -1.23216200   -1.35757600
 H                 -0.66837800   -0.01842600   -3.05987200
 C                  0.78582000   -1.62796600   -3.06056800
 H                  0.12608100   -2.31258000   -3.63536600
 O                 -2.19660700   -1.36814400   -1.69948100
 H                  1.38783100   -2.22969100   -2.34349600
 H                  1.48700800   -1.12953800   -3.76359600
 N                 -0.63226100   -1.70380300   -0.15393100
 C                 -1.54053500   -2.38936600    0.78141400
 H                  0.35822500   -1.52027100    0.12326700
 C                 -2.51564900   -1.43199500    1.44871600
 H                 -2.16441500   -3.12663700    0.22022500
 C                 -0.69891100   -3.14412200    1.81935200
 H                 -1.35563700   -3.72404400    2.50249600
 O                 -3.67633000   -1.77322900    1.59402500
 H                 -0.09317500   -2.43289900    2.42436600
 H                 -0.00096300   -3.84328300    1.31111000
 N                 -2.10670300   -0.23163200    1.92350600
 C                 -3.00720300    0.70059500    2.62386500
 H                 -1.11698400    0.04518600    1.73350100
 C                 -3.98726800    1.37943200    1.67935900
 H                 -3.62752000    0.13561700    3.36124200
 C                 -2.15605300    1.72921600    3.38084600
 H                 -2.80597000    2.41181500    3.96908400
 O                 -5.14677700    1.51997600    2.02715000
 H                 -1.55063000    2.33575500    2.67062500
 H                 -1.45684700    1.21264400    4.07265500
 N                 -3.58240500    1.86957500    0.48381200
 C                 -4.48112100    2.59092700   -0.43400400
 H                 -2.59491300    1.67960700    0.20063000
 C                 -5.46542500    1.66476600   -1.13120300
 H                 -5.09891900    3.31909700    0.14560300
 C                 -3.62823800    3.36530200   -1.44808600
 H                 -4.27725100    3.97056800   -2.11668400
 O                 -6.61759300    2.03112700   -1.28277600
 H                 -3.02845200    2.66479800   -2.07125500
 H                 -2.92500300    4.04315600   -0.91885100
 N                 -5.07299700    0.46627900   -1.62526600
 C                 -5.98365700   -0.43978800   -2.34683700
 H                 -4.08927900    0.17005900   -1.43481400
 C                 -6.95764500   -1.14295200   -1.41446300
 H                 -6.60946300    0.15004900   -3.06043900
 C                 -5.14408200   -1.44688600   -3.14442200
 H                 -5.80326500   -2.10544300   -3.74968000
 O                 -8.12256000   -1.26046000   -1.75096000
 H                 -4.53609800   -2.08026600   -2.46073700
 H                 -4.44926000   -0.91042700   -3.82531600
 N                 -6.54545000   -1.67315600   -0.23804000
 C                 -7.45679900   -2.37422500    0.68348200
 H                 -5.54958800   -1.51178000    0.03469800
 C                 -8.45927000   -1.42889300    1.32713500
 H                 -8.05605400   -3.12337500    0.11118000
 C                 -6.62164900   -3.10950700    1.74063500
 H                 -7.27983700   -3.69732500    2.41580700
 O                 -9.62771700   -1.76659100    1.41089300
 H                 -6.03742000   -2.38607600    2.35231300
 H                 -5.90286900   -3.79973300    1.24910500
 N                 -8.06908000   -0.22927000    1.82199100
 C                 -8.99970900    0.72233700    2.45449700
 H                 -7.06891400    0.04022200    1.67836400
 C                -10.01141700    1.28035500    1.46529200
 H                 -9.59120300    0.19398400    3.24222100
 C                 -8.18351500    1.84497000    3.11069600
 H                 -8.85381500    2.56038200    3.63392000
 O                -11.18237000    1.35735000    1.79316600
 H                 -7.59343000    2.39973400    2.34630600
 H                 -7.46809300    1.41933800    3.84704800
 N                 -9.62745000    1.69894500    0.23408700
 C                -10.57636400    2.20988300   -0.77236800
 H                 -8.62773400    1.54648100   -0.03093600
 C                -11.49035400    1.12782500   -1.33893500
 H                -11.25977700    2.95108800   -0.28998200
 C                 -9.77744700    2.90651800   -1.88224200
 H                -10.46295300    3.34913500   -2.63695000
 O                -12.52396900    1.46474100   -1.88920100
 H                 -9.10584800    2.17756100   -2.39035200
 H                 -9.14447400    3.71217400   -1.45224100
 N                -11.17425300   -0.18842500   -1.25624300
 C                -12.09999900   -1.26203700   -1.65232400
 H                -10.26324300   -0.44239800   -0.81482500
 C                -13.23822100   -1.42440100   -0.65600700
 H                -12.57343900   -1.00872100   -2.63304000
 C                -11.29819100   -2.56225400   -1.80506100
 H                -11.95781300   -3.38856400   -2.14618800
 O                -14.36746900   -1.62534600   -1.06020900
 H                -10.83254500   -2.84645200   -0.83527600
 H                -10.48398300   -2.41861900   -2.54907200
 N                -13.02056900   -1.38249300    0.67002500
 H                -12.07244000   -1.16576300    1.04305500
 H                -13.82606400   -1.46998600    1.32233100

 1 2 1.0 3 1.0 4 1.0 5 1.0
 2 6 2.0 7 1.5
 3
 4
 5
 6
 7 8 1.0 9 1.0
 8 10 1.0 11 1.0 12 1.0
 9
 10 14 2.0 17 1.5
 11
 12 13 1.0 15 1.0 16 1.0
 13
 14
 15
 16
 17 18 1.0 19 1.0
 18 20 1.0 21 1.0 22 1.0
 19
 20 24 2.0 27 1.5
 21
 22 23 1.0 25 1.0 26 1.0
 23
 24
 25
 26
 27 28 1.0 29 1.0
 28 30 1.0 31 1.0 32 1.0
 29
 30 34 2.0 37 1.5
 31
 32 33 1.0 35 1.0 36 1.0
 33
 34
 35
 36
 37 38 1.0 39 1.0
 38
 39 40 1.0 41 1.0 42 1.0
 40 44 2.0 47 1.5
 41
 42 43 1.0 45 1.0 46 1.0
 43
 44
 45
 46
 47 48 1.0 49 1.0
 48 50 1.0 51 1.0 52 1.0
 49
 50 54 2.0 57 1.5
 51
 52 53 1.0 55 1.0 56 1.0
 53
 54
 55
 56
 57 58 1.0 59 1.0
 58 60 1.0 61 1.0 62 1.0
 59
 60 64 2.0 67 1.5
 61
 62 63 1.0 65 1.0 66 1.0
 63
 64
 65
 66
 67 68 1.0 69 1.0
 68 70 1.0 71 1.0 72 1.0
 69
 70 74 2.0 77 1.5
 71
 72 73 1.0 75 1.0 76 1.0
 73
 74
 75
 76
 77 78 1.0 79 1.0
 78 80 1.0 81 1.0 82 1.0
 79
 80 84 2.0 87 1.5
 81
 82 83 1.0 85 1.0 86 1.0
 83
 84
 85
 86
 87 88 1.0 89 1.0
 88 90 1.0 91 1.0 92 1.0
 89
 90 94 2.0 97 1.5
 91
 92 93 1.0 95 1.0 96 1.0
 93
 94
 95
 96
 97 98 1.0 99 1.0
 98 100 1.0 101 1.0 102 1.0
 99
 100 104 2.0 107 1.5
 101
 102 103 1.0 105 1.0 106 1.0
 103
 104
 105
 106
 107 108 1.0 109 1.0
 108 110 1.0 111 1.0 112 1.0
 109
 110 114 2.0 117 1.5
 111
 112 113 1.0 115 1.0 116 1.0
 113
 114
 115
 116
 117 118 1.0 119 1.0
 118 120 1.0 121 1.0 122 1.0
 119
 120 124 2.0 127 1.5
 121
 122 123 1.0 125 1.0 126 1.0
 123
 124
 125
 126
 127 128 1.0 129 1.0
 128 130 1.0 131 1.0 132 1.0
 129
 130 134 2.0 137 1.5
 131
 132 133 1.0 135 1.0 136 1.0
 133
 134
 135
 136
 137 138 1.0 139 1.0
 138 140 1.0 141 1.0 142 1.0
 139
 140 144 2.0 147 1.5
 141
 142 143 1.0 145 1.0 146 1.0
 143
 144
 145
 146
 147 148 1.0 149 1.0
 148 150 1.0 151 1.0 152 1.0
 149
 150 154 2.0 157 1.5
 151
 152 153 1.0 155 1.0 156 1.0
 153
 154
 155
 156
 157 158 1.0 159 1.0
 158 160 1.0 161 1.0 162 1.0
 159
 160 164 2.0 167 1.5
 161
 162 163 1.0 165 1.0 166 1.0
 163
 164
 165
 166
 167 168 1.0 169 1.0
 168 170 1.0 171 1.0 172 1.0
 169
 170 174 2.0 177 1.5
 171
 172 173 1.0 175 1.0 176 1.0
 173
 174
 175
 176
 177 178 1.0 179 1.0
 178
 179

--link1--
%Chk=x2_14_ala17
#p APFD 6-31g(d) guess=read geom=allcheck iop1=timestamp scf=novaracc Int=(UltraFine,Acc2E=12)

