%Chk=x2_14_ala9
#p APFD/3-21g geom=connectivity iop1=timestamp scf=novaracc Int=(UltraFine,Acc2E=12)

Ac(Ala)9NH2

0 1
 N                  5.95882700    1.28987500   -1.69485600
 C                  6.08843700   -0.09382000   -2.18952700
 C                  5.14388500   -1.06589700   -1.48451100
 O                  4.04580500   -1.26938700   -1.97280500
 H                  5.68708300    2.01677700   -2.39149300
 H                  4.70363300   -4.19003100    1.86390400
 C                  6.19438900    1.69116800   -0.42110700
 H                  5.75514200   -0.11285200   -3.25408200
 C                  7.56740300   -0.51092900   -2.18882700
 H                  8.13198800    0.12372300   -2.90356000
 H                  7.67268000   -1.57426500   -2.49149000
 H                  8.02192500   -0.36476300   -1.18692000
 N                  5.49518500   -1.71438600   -0.34607900
 C                  4.56664000   -2.57794300    0.40298200
 C                  3.54139600   -1.76670300    1.17919700
 O                  2.37321000   -2.11427000    1.16432200
 H                  5.93308500   -2.88878500    2.08476800
 H                  2.92849100    1.76216400    4.07186000
 H                  6.40645600   -1.45999500    0.08827000
 H                  3.98881700   -3.21430800   -0.31105900
 C                  5.38170000   -3.48927100    1.32963000
 H                  6.10833300   -4.08332400    0.73545900
 N                  3.90497300   -0.66301800    1.87943000
 C                  2.92469500    0.23419700    2.51372300
 C                  2.15275600    1.08586600    1.50865300
 O                  1.14869300    1.66462800    1.88605700
 H                  4.41341800    1.74169100    3.04418700
 H                  1.97203700    2.70188900   -2.79916100
 H                  4.90419200   -0.36592500    1.82684100
 H                  2.15613500   -0.38034100    3.03891300
 C                  3.65393900    1.10386000    3.54576700
 H                  4.16187300    0.46022100    4.29491300
 N                  2.54533600    1.21067600    0.21565000
 C                  1.69811200    1.83030200   -0.81727600
 C                  0.56538900    0.91131900   -1.24811700
 O                 -0.53087800    1.38958400   -1.47996000
 H                  3.05893500    1.30277500   -2.44311700
 H                 -0.43071200   -3.42185000   -2.50634800
 H                  3.40792900    0.70415100   -0.08132800
 H                  1.21796500    2.75312200   -0.40905200
 C                  2.58250600    2.21176700   -2.01015300
 H                  3.37430800    2.91561200   -1.68189600
 N                  0.76667500   -0.41911400   -1.41091900
 C                 -0.30026200   -1.35444200   -1.80462400
 C                 -1.34492200   -1.51828000   -0.71293100
 O                 -2.52619800   -1.49978800   -1.01020200
 H                  0.87238100   -3.12724600   -1.28606000
 H                 -1.91273500   -2.46565000    3.77062800
 H                  1.71347400   -0.79412100   -1.17279900
 H                 -0.83916700   -0.95222900   -2.69652000
 C                  0.34361500   -2.70035400   -2.16780900
 H                  1.08608400   -2.55866600   -2.98315400
 N                 -0.97994700   -1.70023300    0.57835900
 C                 -1.94881900   -1.84185000    1.67782600
 C                 -2.71802200   -0.55558200    1.93577800
 O                 -3.91535900   -0.61312900    2.15596700
 H                 -0.45197800   -1.54035400    3.24467500
 H                 -2.28041600    3.95978900    2.73784900
 H                  0.04256400   -1.66982100    0.78821200
 H                 -2.71037500   -2.61215400    1.40430700
 C                 -1.19817400   -2.30372900    2.93443400
 H                 -0.66449300   -3.25707300    2.73031400
 N                 -2.09295600    0.64689000    1.93556000
 C                 -2.80357400    1.91491000    2.17575800
 C                 -3.69776300    2.33128400    1.01503400
 O                 -4.57366500    3.15215800    1.22288200
 H                 -1.09644500    3.16185000    1.62887300
 H                 -4.15720400    2.72802400   -3.45295700
 H                 -1.08541700    0.66493400    1.66024100
 H                 -3.49084400    1.79012100    3.04774000
 C                 -1.77050300    3.00144500    2.49925300
 H                 -1.14796700    2.69416500    3.36634100
 N                 -3.54331700    1.81640600   -0.23054000
 C                 -4.42448200    2.15259900   -1.36128500
 C                 -5.45763600    1.06930500   -1.65061200
 O                 -6.31538700    1.29721500   -2.48583000
 H                 -2.95604900    1.51815600   -2.84672900
 H                 -6.36340300   -3.24868600   -2.00156100
 H                 -2.76285200    1.14177700   -0.39283500
 H                 -5.02482400    3.06763900   -1.13326400
 C                 -3.53689400    2.42847200   -2.58087600
 H                 -2.81708600    3.24163400   -2.34725000
 N                 -5.45290800   -0.12549900   -1.00444000
 C                 -6.43540500   -1.19321800   -1.25576800
 C                 -7.27116300   -1.53407200   -0.02743900
 O                 -8.14498300   -2.37395400   -0.12742300
 H                 -4.93553200   -2.75956100   -1.00350000
 H                  5.21146900    3.13678500    0.75883100
 H                 -4.67543400   -0.32946600   -0.33871000
 H                 -7.17976200   -0.87996600   -2.02806600
 C                 -5.66520300   -2.41595100   -1.76891000
 H                 -5.09993700   -2.14607500   -2.68627600
 N                 -7.09151800   -0.93453000    1.16432800
 O                  6.56629000    0.90135300    0.42126900
 C                  5.99647300    3.10345500   -0.02124400
 H                  5.69307100    3.73546900   -0.87832300
 H                  6.94701900    3.48590800    0.39830800
 H                 -7.69194800   -1.21390800    1.96714300
 H                 -6.35966400   -0.20915900    1.31315200

 1 2 1.0 5 1.0 7 1.5
 2 3 1.0 8 1.0 9 1.0
 3 4 2.0 13 1.5
 4
 5
 6 21 1.0
 7 94 2.0 95 1.0
 8
 9 10 1.0 11 1.0 12 1.0
 10
 11
 12
 13 14 1.0 19 1.0
 14 15 1.0 20 1.0 21 1.0
 15 16 2.0 23 1.5
 16
 17 21 1.0
 18 31 1.0
 19
 20
 21 22 1.0
 22
 23 24 1.0 29 1.0
 24 25 1.0 30 1.0 31 1.0
 25 26 2.0 33 1.5
 26
 27 31 1.0
 28 41 1.0
 29
 30
 31 32 1.0
 32
 33 34 1.0 39 1.0
 34 35 1.0 40 1.0 41 1.0
 35 36 2.0 43 1.5
 36
 37 41 1.0
 38 51 1.0
 39
 40
 41 42 1.0
 42
 43 44 1.0 49 1.0
 44 45 1.0 50 1.0 51 1.0
 45 46 2.0 53 1.5
 46
 47 51 1.0
 48 61 1.0
 49
 50
 51 52 1.0
 52
 53 54 1.0 59 1.0
 54 55 1.0 60 1.0 61 1.0
 55 56 2.0 63 1.5
 56
 57 61 1.0
 58 71 1.0
 59
 60
 61 62 1.0
 62
 63 64 1.0 69 1.0
 64 65 1.0 70 1.0 71 1.0
 65 66 2.0 73 1.5
 66
 67 71 1.0
 68 81 1.0
 69
 70
 71 72 1.0
 72
 73 74 1.0 79 1.0
 74 75 1.0 80 1.0 81 1.0
 75 76 2.0 83 1.5
 76
 77 81 1.0
 78 91 1.0
 79
 80
 81 82 1.0
 82
 83 84 1.0 89 1.0
 84 85 1.0 90 1.0 91 1.0
 85 86 2.0 93 1.5
 86
 87 91 1.0
 88 95 1.0
 89
 90
 91 92 1.0
 92
 93 98 1.0 99 1.0
 94
 95 96 1.0 97 1.0
 96
 97
 98
 99

--Link1--
%Chk=x2_14_ala9
#p APFD/6-31G(d) guess=read geom=allcheck iop1=timestamp scf=novaracc Int=(UltraFine,Acc2E=12)

