%Chk=x2_14_ala6
#p APFD/3-21g geom=connectivity iop1=timestamp scf=(noincore,novaracc) Int=(UltraFine,Acc2E=12)

Ac(Ala)6NH2

0 1
 N                  4.20549400    0.22095600   -1.56200900
 C                  4.32823000   -1.13071300   -0.98571900
 C                  3.16407200   -1.48676800   -0.06433500
 O                  2.15845700   -2.05939700   -0.56168700
 H                  4.16196600    0.29011900   -2.60182800
 H                  1.70271700   -1.81662200    4.28105400
 C                  4.17302600    1.37247000   -0.84735600
 H                  4.25030400   -1.87045800   -1.81717200
 C                  5.72501300   -1.31048200   -0.37065500
 H                  6.49289200   -1.24803200   -1.16997900
 H                  5.80670800   -2.29900900    0.12901100
 H                  5.94481700   -0.50628600    0.36203200
 N                  3.19306200   -1.23528300    1.26796800
 C                  2.04485100   -1.49357200    2.15308300
 C                  0.95842900   -0.44387300    1.98974900
 O                 -0.24365000   -0.81115900    1.90645000
 H                  2.97425600   -0.58978800    3.91760400
 H                  0.07548000    4.06887500    1.70043700
 H                  4.00022600   -0.69039100    1.63618000
 H                  1.57522900   -2.47184200    1.88525400
 C                  2.54591700   -1.56491900    3.60104000
 H                  3.32340800   -2.35265100    3.69549600
 N                  1.26322100    0.87512600    1.90603400
 C                  0.25465600    1.89726300    1.58324000
 C                 -0.23460600    1.81686100    0.14050300
 O                 -1.32855300    2.36774800   -0.15527300
 H                  1.72917100    3.47860700    1.27411700
 H                  0.61642200    0.19441200   -4.09347500
 H                  2.27241500    1.14086200    1.92237700
 H                 -0.64676300    1.72659200    2.21779500
 C                  0.83388300    3.28083100    1.90245600
 H                  1.12670700    3.33292900    2.97256800
 N                  0.45180800    1.14388200   -0.81763000
 C                 -0.11415800    0.86478300   -2.14798200
 C                 -1.23294400   -0.16136300   -2.08034900
 O                 -2.27901100    0.02798300   -2.75564600
 H                  1.47324800   -0.54070100   -2.68350600
 H                 -2.44979400   -4.26927200   -0.36162200
 H                  1.33723300    0.66833300   -0.53563700
 H                 -0.57144700    1.79612300   -2.56482000
 C                  1.01430300    0.39583900   -3.07511000
 H                  1.79571600    1.17976500   -3.14560300
 N                 -1.11839900   -1.27379400   -1.31341300
 C                 -2.21849700   -2.23797000   -1.13772900
 C                 -3.39231100   -1.66405100   -0.35327500
 O                 -4.51890900   -2.21700300   -0.46162800
 H                 -1.27775600   -3.24147900    0.55602300
 H                 -4.68400400    1.43127900    2.80780800
 H                 -0.25642700   -1.36920400   -0.72779600
 H                 -2.63579500   -2.50639300   -2.13899600
 C                 -1.65775700   -3.49535600   -0.45969900
 H                 -0.81734700   -3.91010700   -1.05707600
 N                 -3.24492100   -0.60259100    0.47815000
 C                 -4.38340600    0.06214700    1.13133300
 C                 -5.23328100    0.83839000    0.13676100
 O                 -6.48442100    0.84301200    0.26059500
 H                 -3.22697200    1.79144200    1.80127500
 H                 -2.28736200   -0.20087000    0.58574800
 H                 -5.05623800   -0.70672400    1.58463600
 C                 -3.84350100    0.97610400    2.24063400
 H                 -3.21188600    0.38796100    2.94185200
 N                 -4.67320900    1.60084600   -0.81824300
 H                 -3.63986700    1.60532600   -0.95300600
 H                  3.06470800    3.13959600   -1.15482500
 O                  4.26571700    1.35649200    0.40296100
 C                  4.00305000    2.68006400   -1.52087200
 H                  3.95828700    2.57334700   -2.62217700
 H                  4.85860700    3.32764300   -1.24829800
 H                 -5.28509800    2.11709800   -1.48191600

 1 2 1.0 5 1.0 7 1.5
 2 3 1.0 8 1.0 9 1.0
 3 4 2.0 13 1.5
 4
 5
 6 21 1.0
 7 65 2.0 66 1.0
 8
 9 10 1.0 11 1.0 12 1.0
 10
 11
 12
 13 14 1.0 19 1.0
 14 15 1.0 20 1.0 21 1.0
 15 16 2.0 23 1.5
 16
 17 21 1.0
 18 31 1.0
 19
 20
 21 22 1.0
 22
 23 24 1.0 29 1.0
 24 25 1.0 30 1.0 31 1.0
 25 26 2.0 33 1.5
 26
 27 31 1.0
 28 41 1.0
 29
 30
 31 32 1.0
 32
 33 34 1.0 39 1.0
 34 35 1.0 40 1.0 41 1.0
 35 36 2.0 43 1.5
 36
 37 41 1.0
 38 51 1.0
 39
 40
 41 42 1.0
 42
 43 44 1.0 49 1.0
 44 45 1.0 50 1.0 51 1.0
 45 46 2.0 53 1.5
 46
 47 51 1.0
 48 60 1.0
 49
 50
 51 52 1.0
 52
 53 54 1.0 58 1.0
 54 55 1.0 59 1.0 60 1.0
 55 56 2.0 62 1.5
 56
 57 60 1.0
 58
 59
 60 61 1.0
 61
 62 63 1.0 69 1.0
 63
 64 66 1.0
 65
 66 67 1.0 68 1.0
 67
 68
 69

--link1--
%Chk=x2_14_ala6
#p APFD/6-31g(d) geom=allcheck iop1=timestamp scf=(noincore,novaracc) guess=read Int=(UltraFine,Acc2E=12)

