%Chk=x2_14_ala3
#p APFD/3-21g geom=connectivity iop1=timestamp scf=(noincore,novaracc) Int=(UltraFine,Acc2E=12)

Ac(Ala)3NH2

0 1
 N                  1.96752400   -1.77755700    0.42048700
 C                  2.67546300   -0.55674300    0.85149400
 C                  1.74886800    0.64903700    0.95651800
 O                  1.26258200    0.93414400    2.08277800
 H                  1.80848400   -2.51369000    1.14364900
 H                 -0.10755200    4.28450900   -1.14167000
 C                  1.42567000   -1.98923200   -0.80274800
 H                  3.02694700   -0.72075700    1.89807700
 C                  3.93893100   -0.33228600    0.00512900
 H                  4.61848800   -1.20294500    0.11704400
 H                  4.47042200    0.58394100    0.33870700
 H                  3.69755900   -0.23698800   -1.07265000
 N                  1.41545900    1.40593500   -0.11908400
 C                  0.39052600    2.46291800   -0.04834800
 C                 -1.03073100    1.90927400   -0.04418100
 O                 -1.96981900    2.66247400    0.32677600
 H                  0.46135400    2.92621500   -2.18436100
 H                 -3.99840900   -1.01602000   -1.66773300
 H                  1.77767400    1.11289500   -1.05113000
 H                  0.49420600    3.01648800    0.91796900
 C                  0.61289200    3.43948900   -1.21008900
 H                  1.64459500    3.84966300   -1.17123800
 N                 -1.30031200    0.63125200   -0.41637200
 C                 -2.62894800    0.00956400   -0.30561300
 C                 -2.68001400   -1.05507300    0.78694100
 O                 -3.71629200   -1.75520300    0.91379700
 H                 -2.25032800   -1.35064300   -1.97590500
 H                 -0.51862400    0.04379200   -0.77810200
 H                 -3.40562900    0.75906800   -0.01801500
 C                 -2.98132200   -0.56608300   -1.68396000
 H                 -2.96173000    0.24168700   -2.44659300
 N                 -1.68111100   -1.22539900    1.67385100
 H                 -0.84387600   -0.60511500    1.67772900
 H                  0.28393400   -3.21021700   -2.11056000
 O                  1.54406700   -1.14155800   -1.71953600
 C                  0.65007300   -3.22139500   -1.06484000
 H                 -0.21469700   -3.26645800   -0.37307400
 H                  1.30677100   -4.09951700   -0.91698100
 H                 -1.79324900   -1.93119200    2.43031700

 1 2 1.0 5 1.0 7 1.5
 2 3 1.0 8 1.0 9 1.0
 3 4 2.0 13 1.5
 4
 5
 6 21 1.0
 7 35 2.0 36 1.0
 8
 9 10 1.0 11 1.0 12 1.0
 10
 11
 12
 13 14 1.0 19 1.0
 14 15 1.0 20 1.0 21 1.0
 15 16 2.0 23 1.5
 16
 17 21 1.0
 18 30 1.0
 19
 20
 21 22 1.0
 22
 23 24 1.0 28 1.0
 24 25 1.0 29 1.0 30 1.0
 25 26 2.0 32 1.5
 26
 27 30 1.0
 28
 29
 30 31 1.0
 31
 32 33 1.0 39 1.0
 33
 34 36 1.0
 35
 36 37 1.0 38 1.0
 37
 38
 39

--link1--
%Chk=x2_14_ala3
#p APFD/6-31g(d) geom=allcheck iop1=timestamp scf=(noincore,novaracc) guess=read Int=(UltraFine,Acc2E=12)

