%chk=e8_07_gs
# opt FREQ B3LYP TZVP SCRF(Solvent=Cyclohexane) Geom=Connectivity Int=(Ultrafine,Acc2E=12)

trans,trans-1,4-diphenyl-1,3-butadiene ground state opt freq

0 1
 C                  0.61272301    1.74383615    0.00000000
 H                  1.68122913    1.54189142    0.00000000
 C                 -0.22219653    0.68453980    0.00000000
 H                 -1.29735050    0.84039756    0.00000000
 C                  0.22219653   -0.68453980    0.00000000
 H                  1.29735050   -0.84039756    0.00000000
 C                 -0.61272301   -1.74383615    0.00000000
 H                 -1.68122913   -1.54189142    0.00000000
 C                  0.25630579    3.16002927    0.00000000
 C                  1.28453766    4.11670131    0.00000000
 C                 -1.07013310    3.62643976    0.00000000
 C                  1.00563256    5.47767801    0.00000000
 H                  2.31546749    3.78119082    0.00000000
 C                 -1.34822530    4.98491554    0.00000000
 H                 -1.89211856    2.92196228    0.00000000
 C                 -0.31334375    5.91977168    0.00000000
 H                  1.81896443    6.19325055    0.00000000
 H                 -2.37860454    5.31985534    0.00000000
 H                 -0.53563020    6.97966224    0.00000000
 C                 -0.25630579   -3.16002927    0.00000000
 C                 -1.28453766   -4.11670131    0.00000000
 C                  1.07013310   -3.62643976    0.00000000
 C                 -1.00563256   -5.47767801    0.00000000
 H                 -2.31546749   -3.78119082    0.00000000
 C                  1.34822530   -4.98491554    0.00000000
 H                  1.89211856   -2.92196228    0.00000000
 C                  0.31334375   -5.91977168    0.00000000
 H                 -1.81896443   -6.19325055    0.00000000
 H                  2.37860454   -5.31985534    0.00000000
 H                  0.53563020   -6.97966224    0.00000000

 1 2 1.0 3 2.0 9 1.0
 2
 3 4 1.0 5 1.5
 4
 5 6 1.0 7 2.0
 6
 7 8 1.0 20 1.0
 8
 9 10 1.5 11 1.5
 10 12 1.5 13 1.0
 11 14 1.5 15 1.0
 12 16 1.5 17 1.0
 13
 14 16 1.5 18 1.0
 15
 16 19 1.0
 17
 18
 19
 20 21 1.5 22 1.5
 21 23 1.5 24 1.0
 22 25 1.5 26 1.0
 23 27 1.5 28 1.0
 24
 25 27 1.5 29 1.0
 26
 27 30 1.0
 28
 29
 30


--link1--
%OldChk=e8_07_gs
%Chk=e8_07_ex
# TD CAM-B3LYP TZVP SCRF(Solvent=Cyclohexane) Geom=check guess=read Int=(Ultrafine,Acc2E=12)

trans,trans-1,4-diphenyl-1,3-butadiene TD excited states: CAM-B3LYP/TZVP

0 1

