%Chk=e8_04_td
# opt freq 6-311+g(2d,p) geom=connectivity apfd int=(ultrafine,acc2e=12)

TiO2

0 1
 Ti                -0.25961539   -0.01923077    0.05599162
 O                  1.10119393   -0.01923077    0.97559792
 O                 -1.62042471   -0.01923077    0.97559792

 1 2 2.0 3 2.0
 2
 3

--link1--
%Chk=e8_04_td
# APFD/6-311+G(2d,p) TD(Nstates=5,Singlets) Geom=Allcheck Guess=Read Int=(Ultrafine,Acc2E=12)

--link1--
%Chk=e8_04_td
# APFD/6-311+G(2d,p) TD(Nstates=5,Triplets) Geom=Allcheck Guess=Read Int=(Ultrafine,Acc2E=12)

--link1--
%Chk=e8_04_td
# APFD/aug-cc-pVTZ TD(Nstates=5,Singlets) Geom=Allcheck Guess=Read Int=(Ultrafine,Acc2E=12)

--link1--
%Chk=e8_04_td
# APFD/aug-cc-pVTZ TD(Nstates=5,Triplets) Geom=Allcheck Guess=Read Int=(Ultrafine,Acc2E=12)

