%chk=e8_06_gs
# opt freq apfd/6-311+g(2d,p) geom=connectivity int=(ultrafine,acc2e=12)

p-(dimethylamino)-benzonitrile ground state gas-phase optimization

0 1
 N                 -0.04101341    2.28408831    0.00000000
 C                 -0.02177167    0.91831518    0.00000000
 C                  0.02336490    3.01083873    1.24505177
 C                  0.02336490    3.01083873   -1.24505177
 C                 -0.01240990    0.18624041    1.20656105
 C                 -0.01240990    0.18624041   -1.20656105
 H                 -0.01204696    4.07826791    1.03677119
 H                 -0.82469723    2.76995589    1.89489375
 H                  0.94871081    2.80294502    1.79639727
 H                 -0.01204696    4.07826791   -1.03677119
 H                  0.94871081    2.80294502   -1.79639727
 H                 -0.82469723    2.76995589   -1.89489375
 C                 -0.00416976   -1.19229071    1.20143517
 C                 -0.00416976   -1.19229071   -1.20143517
 H                 -0.01086478    0.69917093    2.15922890
 H                 -0.01086478    0.69917093   -2.15922890
 C                 -0.00122206   -1.90542362    0.00000000
 H                  0.00200625   -1.73299624    2.14146609
 H                  0.00200625   -1.73299624   -2.14146609
 C                  0.00836716   -3.32900547    0.00000000
 N                  0.01597995   -4.48349542    0.00000000

 1 2 1.5 3 1.0 4 1.0
 2 5 1.5 6 1.5
 3 7 1.0 8 1.0 9 1.0
 4 10 1.0 11 1.0 12 1.0
 5 13 2.0 15 1.0
 6 14 2.0 16 1.0
 7
 8
 9
 10
 11
 12
 13 17 1.5 18 1.0
 14 17 1.5 19 1.0
 15
 16
 17 20 1.5
 18
 19
 20 21 3.0
 21

--link1--
%OldChk=e8_06_gs
%Chk=e8_06_xs
# td(nstates=5) apfd/6-311+G(2d,p) geom=check guess=read int=(ultrafine,acc2e=12)

p-(dimethylamino)-benzonitrile vertical excited states (gas-phase)

0 1



