%Chk=e8_06_TICT
# OPT FREQ TD(root=1) APFd/6-311+g(2d,p) geom=connectivity Int=(Ultrafine,Acc2E=12)

p-(dimethylamino)-benzonitrile geometry optimization of TICT (charge transfer) [gas-phase]

0 1
 N                  0.00000000    0.00000000   -2.27658155
 C                  0.00000000    0.00000000   -0.88452472
 C                 -1.23670407    0.00000000   -3.01795775
 C                  1.23670407    0.00000000   -3.01795775
 C                  0.00000000   -1.23391371   -0.20611533
 C                 -0.00000000    1.23391371   -0.20611533
 H                 -1.02211306    0.00000000   -4.08298486
 H                 -1.85211894   -0.84899662   -2.76316041
 H                 -1.85211894    0.84899662   -2.76316041
 H                  1.02211306    0.00000000   -4.08298486
 H                  1.85211894    0.84899662   -2.76316041
 H                  1.85211894   -0.84899662   -2.76316041
 C                  0.00000000   -1.23187776    1.22066612
 C                 -0.00000000    1.23187776    1.22066612
 H                  0.00000000   -2.17582448   -0.73307055
 H                 -0.00000000    2.17582448   -0.73307055
 C                  0.00000000   -0.00000000    1.89104831
 H                  0.00000000   -2.15578390    1.78162705
 H                 -0.00000000    2.15578390    1.78162705
 C                  0.00000000    0.00000000    3.31459239
 N                  0.00000000    0.00000000    4.47000027

 1 2 1.0 3 1.0 4 1.0
 2 5 1.5 6 1.5
 3 7 1.0 8 1.0 9 1.0
 4 10 1.0 11 1.0 12 1.0
 5 13 1.5 15 1.0
 6 14 1.5 16 1.0
 7
 8
 9
 10
 11
 12
 13 17 1.5 18 1.0
 14 17 1.5 19 1.0
 15
 16
 17 20 1.5
 18
 19
 20 21 3.0
 21

