%chk=e8_10_nbo
# apfd/6-31g(d) pop=(nbo,savemix) 

Benzene NBOs for CAS

0 1
 C                  0.00000000    1.38980400    0.00000000
 C                  1.20360500    0.69490200    0.00000000
 C                  1.20360500   -0.69490200    0.00000000
 C                  0.00000000   -1.38980400    0.00000000
 C                 -1.20360500   -0.69490200    0.00000000
 C                 -1.20360500    0.69490200    0.00000000
 H                  0.00000000    2.47523400    0.00000000
 H                  2.14361600    1.23761700    0.00000000
 H                  2.14361600   -1.23761700    0.00000000
 H                  0.00000000   -2.47523400    0.00000000
 H                 -2.14361600   -1.23761700    0.00000000
 H                 -2.14361600    1.23761700    0.00000000

