%Chk=x8_05_gs
# OPT(CalcFC,Tight) FREQ APFd 6-311+g(2d,p) geom=connect SCRF(Solvent=Acetonitrile) Int=(Ultrafine,Acc2E=12)

p-(dimethylamino)-benzonitrile ground state optimization in acetonitrile

 0,1
  N                                                -0.041013410944      2.284088308760      0.000000000000
  C                                                -0.021771672335      0.918315181382      0.000000000000
  C                                                 0.023364899166      3.010838733609      1.245051768014
  C                                                 0.023364899166      3.010838733609     -1.245051768014
  C                                                -0.012409898303      0.186240412972      1.206561053168
  C                                                -0.012409898303      0.186240412972     -1.206561053168
  H                                                -0.012046964617      4.078267913446      1.036771193419
  H                                                -0.824697233422      2.769955885082      1.894893748910
  H                                                 0.948710808768      2.802945015457      1.796397266036
  H                                                -0.012046964617      4.078267913446     -1.036771193419
  H                                                 0.948710808768      2.802945015457     -1.796397266036
  H                                                -0.824697233422      2.769955885082     -1.894893748910
  C                                                -0.004169755460     -1.192290707104      1.201435174157
  C                                                -0.004169755460     -1.192290707104     -1.201435174157
  H                                                -0.010864779616      0.699170930889      2.159228899652
  H                                                -0.010864779616      0.699170930889     -2.159228899652
  C                                                -0.001222063709     -1.905423622489      0.000000000000
  H                                                 0.002006251691     -1.732996237517      2.141466086101
  H                                                 0.002006251691     -1.732996237517     -2.141466086101
  C                                                 0.008367158672     -3.329005470383      0.000000000000
  N                                                 0.015979951630     -4.483495420959      0.000000000000

 1 2 1.500 3 1.000 4 1.000
 2 1 1.500 5 1.500 6 1.500
 3 1 1.000 7 1.000 8 1.000 9 1.000
 4 1 1.000 10 1.000 11 1.000 12 1.000
 5 2 1.500 13 2.000 15 1.000
 6 2 1.500 14 2.000 16 1.000
 7 3 1.000
 8 3 1.000
 9 3 1.000
 10 4 1.000
 11 4 1.000
 12 4 1.000
 13 5 2.000 17 1.500 18 1.000
 14 6 2.000 17 1.500 19 1.000
 15 5 1.000
 16 6 1.000
 17 13 1.500 14 1.500 20 1.500
 18 13 1.000
 19 14 1.000
 20 17 1.500 21 3.000
 21 20 3.000
 
--link1--
%OldChk=x8_05_gs
%Chk=x8_05_xs
# TD(nstates=5) APFD/6-311+G(2d,p) SCRF(Solvent=Acetonitrile) Int=(Ultrafine,Acc2E=12) Geom=check Guess=Read

p-(dimethylamino)-benzonitrile vertical excited states (in acetonitrile)

0 1


