%Chk=x8_06_nh2h_tdopt
# td(Root=1)/6-311+g(2d,p) geom=connectivity apfd int=(ultrafine,acc2e=12) Opt

H-Ph4-NH2: First excited state geometry optimization

0 1
 C                 -5.31944700    1.12590200   -0.39553800
 C                 -4.59271900   -0.00113200   -0.00392700
 C                 -5.31897600   -1.12837200    0.38785900
 C                 -6.70263900   -1.13354600    0.39214100
 C                 -7.42004900   -0.00088700   -0.00146200
 C                 -6.70307400    1.13085000   -0.39873100
 C                 -3.12111700   -0.00072200   -0.00320200
 C                 -2.39772300    1.12936300    0.38823800
 C                 -1.01315200    1.13068900    0.38626000
 C                 -0.29085600   -0.00035800   -0.00166500
 C                 -1.01245900   -1.13153900   -0.39047800
 C                 -2.39702900   -1.13060100   -0.39400200
 C                  1.18166600   -0.00015100   -0.00089000
 C                  1.90314000   -1.12565400    0.40488100
 C                  3.28783200   -1.12576500    0.40495900
 C                  4.00843000    0.00022100    0.00063300
 C                  3.28797100    1.12600500   -0.40450300
 C                  1.90327900    1.12552800   -0.40592800
 C                  5.48251300    0.00039900    0.00139300
 C                  6.19814400    1.12491700    0.42011800
 C                  7.58554300    1.12575500    0.42111100
 C                  8.28576300    0.00074400    0.00279700
 C                  7.58623700   -1.12443500   -0.41622600
 C                  6.19883800   -1.12394200   -0.41662400
 N                 -8.80881200   -0.01974500   -0.05624200
 H                  3.82298700   -2.00165300    0.75808200
 H                  1.36836600   -2.00128000    0.75899900
 H                  1.36866400    2.00093800   -0.76082000
 H                  3.82327400    2.00197900   -0.75718700
 H                  5.65766100    1.99775700    0.77256900
 H                  8.12309000    2.00623600    0.75880400
 H                  9.37090800    0.00088300    0.00332000
 H                  8.12433300   -2.00476400   -0.75343400
 H                  5.65893000   -1.99688900   -0.76968500
 H                 -0.47933400    2.01191000    0.72819100
 H                 -2.93148900    2.00935600    0.73313200
 H                 -2.93024300   -2.01043900   -0.74009800
 H                 -0.47808500   -2.01251500   -0.73215200
 H                 -4.78753200   -2.01316000    0.72432200
 H                 -7.23793100   -2.02391600    0.71054700
 H                 -7.23891600    2.01736000   -0.72673100
 H                 -4.78842600    2.01135300   -0.73091400
 H                 -9.25295000    0.88352400    0.00921300
 H                 -9.25230500   -0.69807900    0.54425000

 1 2 1.5 6 2.0 42 1.0
 2 3 1.5 7 1.0
 3 4 2.0 39 1.0
 4 5 1.5 40 1.0
 5 6 1.5 25 1.0
 6 41 1.0
 7 8 1.5 12 1.5
 8 9 2.0 36 1.0
 9 10 1.5 35 1.0
 10 11 1.5 13 1.0
 11 12 2.0 38 1.0
 12 37 1.0
 13 14 1.5 18 1.5
 14 15 2.0 27 1.0
 15 16 1.5 26 1.0
 16 17 1.5 19 1.0
 17 18 2.0 29 1.0
 18 28 1.0
 19 20 1.5 24 1.5
 20 21 1.5 30 1.0
 21 22 1.5 31 1.0
 22 23 1.5 32 1.0
 23 24 1.5 33 1.0
 24 34 1.0
 25 43 1.0 44 1.0
 26
 27
 28
 29
 30
 31
 32
 33
 34
 35
 36
 37
 38
 39
 40
 41
 42
 43
 44

