%Chk=x8_06_nh2nh2_gs
# opt freq 6-311+g(2d,p) geom=connectivity apfd int=(ultrafine,acc2e=12)

NH2-Ph4-NH2

0 1
 C                 -5.81686455    1.14787932   -0.34954442
 C                 -5.08140608   -0.00091216   -0.00305485
 C                 -5.81612307   -1.14970384    0.34492507
 C                 -7.20694252   -1.15570061    0.34878543
 C                 -7.93276480   -0.00153392   -0.00189770
 C                 -7.20763593    1.15353875   -0.35129213
 C                 -3.59913671   -0.00043781   -0.00228675
 C                 -2.86574522    1.14538558    0.35851020
 C                 -1.47370443    1.14634377    0.35697886
 C                 -0.74162821   -0.00018457   -0.00116149
 C                 -1.47320760   -1.14687592   -0.35973366
 C                 -2.86525642   -1.14617959   -0.36233586
 C                  0.74162821    0.00018457   -0.00116149
 C                  1.47370443   -1.14634377    0.35697886
 C                  2.86574522   -1.14538558    0.35851020
 C                  3.59913671    0.00043781   -0.00228675
 C                  2.86525642    1.14617959   -0.36233586
 C                  1.47320760    1.14687592   -0.35973366
 C                  5.08140608    0.00091216   -0.00305485
 C                  5.81612307    1.14970384    0.34492507
 C                  7.20694252    1.15570061    0.34878543
 C                  7.93276480    0.00153392   -0.00189770
 C                  7.20763593   -1.15353875   -0.35129213
 C                  5.81686455   -1.14787932   -0.34954442
 N                  9.32493619    0.02029102   -0.06354439
 N                 -9.32493619   -0.02029102   -0.06354439
 H                  3.39285457   -2.04218506    0.67827476
 H                  0.94628200   -2.04388418    0.67442468
 H                  0.94557744    2.04400997   -0.67669068
 H                  3.39223534    2.04270042   -0.68174702
 H                  5.28975114    2.05282154    0.64827793
 H                  7.74480918    2.05951779    0.63385723
 H                  7.74627548   -2.05647312   -0.63705205
 H                  5.29114293   -2.05336272   -0.64627131
 H                  9.77047729    0.72482040    0.52074880
 H                  9.77160558   -0.88757030    0.04815967
 H                 -0.94628200    2.04388418    0.67442468
 H                 -3.39285457    2.04218506    0.67827476
 H                 -3.39223534   -2.04270042   -0.68174702
 H                 -0.94557744   -2.04400997   -0.67669068
 H                 -5.28975114   -2.05282154    0.64827793
 H                 -7.74480918   -2.05951779    0.63385723
 H                 -7.74627548    2.05647312   -0.63705205
 H                 -5.29114293    2.05336272   -0.64627131
 H                 -9.77160558    0.88757030    0.04815967
 H                 -9.77047729   -0.72482040    0.52074880

 1 2 1.5 6 1.5 44 1.0
 2 3 1.5 7 1.0
 3 4 1.5 41 1.0
 4 5 1.5 42 1.0
 5 6 1.5 26 1.0
 6 43 1.0
 7 8 1.5 12 1.5
 8 9 1.5 38 1.0
 9 10 1.5 37 1.0
 10 11 1.5 13 1.0
 11 12 1.5 40 1.0
 12 39 1.0
 13 14 1.5 18 1.5
 14 15 1.5 28 1.0
 15 16 1.5 27 1.0
 16 17 1.5 19 1.0
 17 18 1.5 30 1.0
 18 29 1.0
 19 20 1.5 24 1.5
 20 21 1.5 31 1.0
 21 22 1.5 32 1.0
 22 23 1.5 25 1.0
 23 24 1.5 33 1.0
 24 34 1.0
 25 35 1.0 36 1.0
 26 45 1.0 46 1.0
 27
 28
 29
 30
 31
 32
 33
 34
 35
 36
 37
 38
 39
 40
 41
 42
 43
 44
 45
 46

--Link1--
%Chk=x8_06_nh2nh2_gs
# TD(NStates=6) APFD/6-311+G(2d,p) Geom=Allcheck Guess=Read Int=(ultrafine,acc2e=12)




