%Chk=x8_06_nh2nh2_tdopt
# td(Root=1)/6-311+g(2d,p) geom=connectivity apfd int=(ultrafine,acc2e=12) opt

NH2-Ph4-NH2: First excited state geometry optimization

0 1
 C                  5.76610200   -1.12716200   -0.38923700
 C                  5.03894800    0.00138900   -0.00292000
 C                  5.76501600    1.13028500    0.38428900
 C                  7.14877400    1.13569500    0.38900100
 C                  7.86651000    0.00143600    0.00095300
 C                  7.14981800   -1.13206400   -0.39147800
 C                  3.56716500    0.00084200   -0.00293000
 C                  2.84364700   -1.12712400    0.39406000
 C                  1.45901300   -1.12833600    0.39191800
 C                  0.73621500    0.00018700   -0.00285100
 C                  1.45849200    1.12898400   -0.39779200
 C                  2.84312900    1.12844600   -0.40003700
 C                 -0.73621500   -0.00018800   -0.00285200
 C                 -1.45901300    1.12833500    0.39191700
 C                 -2.84364700    1.12712300    0.39405900
 C                 -3.56716500   -0.00084300   -0.00293200
 C                 -2.84312900   -1.12844700   -0.40003900
 C                 -1.45849200   -1.12898500   -0.39779300
 C                 -5.03894800   -0.00138900   -0.00292200
 C                 -5.76501600   -1.13028500    0.38428800
 C                 -7.14877400   -1.13569500    0.38900100
 C                 -7.86651000   -0.00143500    0.00095400
 C                 -7.14981800    1.13206500   -0.39147800
 C                 -5.76610200    1.12716200   -0.38923900
 N                 -9.25571900   -0.02017100   -0.05324900
 N                  9.25571900    0.02017300   -0.05325100
 H                 -3.37737800    2.00528900    0.74378400
 H                 -0.92502300    2.00754000    0.73869300
 H                 -0.92412700   -2.00776300   -0.74505200
 H                 -3.37648600   -2.00651800   -0.75052900
 H                 -5.23319700   -2.01645100    0.71648900
 H                 -7.68389900   -2.02752800    0.70367200
 H                 -7.68599100    2.02000900   -0.71512400
 H                 -5.23521400    2.01407800   -0.72091300
 H                 -9.69810600   -0.70072500    0.54560000
 H                 -9.69916700    0.88301000    0.01830100
 H                  0.92502300   -2.00754000    0.73869400
 H                  3.37737700   -2.00529000    0.74378600
 H                  3.37648600    2.00651700   -0.75052700
 H                  0.92412800    2.00776200   -0.74505100
 H                  5.23319600    2.01645000    0.71649000
 H                  7.68389900    2.02752900    0.70367200
 H                  7.68599200   -2.02000800   -0.71512300
 H                  5.23521500   -2.01407900   -0.72091000
 H                  9.69916800   -0.88300700    0.01830100
 H                  9.69810600    0.70073000    0.54559500

 1 2 1.5 6 2.0 44 1.0
 2 3 1.5 7 1.0
 3 4 2.0 41 1.0
 4 5 1.5 42 1.0
 5 6 1.5 26 1.0
 6 43 1.0
 7 8 1.5 12 1.5
 8 9 2.0 38 1.0
 9 10 1.5 37 1.0
 10 11 1.5 13 1.0
 11 12 2.0 40 1.0
 12 39 1.0
 13 14 1.5 18 1.5
 14 15 2.0 28 1.0
 15 16 1.5 27 1.0
 16 17 1.5 19 1.0
 17 18 2.0 30 1.0
 18 29 1.0
 19 20 1.5 24 1.5
 20 21 2.0 31 1.0
 21 22 1.5 32 1.0
 22 23 1.5 25 1.0
 23 24 2.0 33 1.0
 24 34 1.0
 25 35 1.0 36 1.0
 26 45 1.0 46 1.0
 27
 28
 29
 30
 31
 32
 33
 34
 35
 36
 37
 38
 39
 40
 41
 42
 43
 44
 45
 46

