%Chk=x8_08_gs
# B3LYP TZVP OPT FREQ SCRF(solvent=cyclohexane) geom=connectivity Int=(Ultrafine,Acc2E=12)

all trans Ph-CH-CH-CH-CH-CH-CH-CH-CH-Ph ground state opt freq

0 1
 C                 -0.71583300    4.23361300    0.00000000
 H                 -1.79710900    4.10033800    0.00000000
 C                  0.04872000    3.12868100    0.00000000
 H                  1.13382200    3.21301800    0.00000000
 C                 -0.48647900    1.78681300    0.00000000
 H                 -1.57197300    1.69093600    0.00000000
 C                  0.26703300    0.67018100    0.00000000
 H                  1.35250900    0.76660400    0.00000000
 C                 -0.26703300   -0.67018100    0.00000000
 H                 -1.35250900   -0.76660400    0.00000000
 C                  0.48647900   -1.78681300    0.00000000
 H                  1.57197300   -1.69093600    0.00000000
 C                 -0.04872000   -3.12868100    0.00000000
 H                 -1.13382200   -3.21301800    0.00000000
 C                  0.71583300   -4.23361300    0.00000000
 H                  1.79710900   -4.10033800    0.00000000
 C                 -0.26703300    5.62766900    0.00000000
 C                 -1.22812100    6.64560600    0.00000000
 C                  1.08420800    6.00077200    0.00000000
 C                 -0.86030200    7.98431600    0.00000000
 H                 -2.28091600    6.37622000    0.00000000
 C                  1.45319600    7.33684800    0.00000000
 H                  1.85640800    5.23847000    0.00000000
 C                  0.48381900    8.33660200    0.00000000
 H                 -1.62631100    8.75377200    0.00000000
 H                  2.50613700    7.60216300    0.00000000
 H                  0.77660400    9.38185900    0.00000000
 C                  0.26703300   -5.62766900    0.00000000
 C                  1.22812100   -6.64560600    0.00000000
 C                 -1.08420800   -6.00077200    0.00000000
 C                  0.86030200   -7.98431600    0.00000000
 H                  2.28091600   -6.37622000    0.00000000
 C                 -1.45319600   -7.33684800    0.00000000
 H                 -1.85640800   -5.23847000    0.00000000
 C                 -0.48381900   -8.33660200    0.00000000
 H                  1.62631100   -8.75377200    0.00000000
 H                 -2.50613700   -7.60216300    0.00000000
 H                 -0.77660400   -9.38185900    0.00000000

 1 2 1.0 3 2.0 17 1.0
 2
 3 4 1.0 5 1.5
 4
 5 6 1.0 7 2.0
 6
 7 8 1.0 9 1.5
 8
 9 10 1.0 11 2.0
 10
 11 12 1.0 13 1.5
 12
 13 14 1.0 15 2.0
 14
 15 16 1.0 28 1.0
 16
 17 18 1.5 19 1.5
 18 20 1.5 21 1.0
 19 22 1.5 23 1.0
 20 24 1.5 25 1.0
 21
 22 24 1.5 26 1.0
 23
 24 27 1.0
 25
 26
 27
 28 29 1.5 30 1.5
 29 31 1.5 32 1.0
 30 33 1.5 34 1.0
 31 35 1.5 36 1.0
 32
 33 35 1.5 37 1.0
 34
 35 38 1.0
 36
 37
 38

--link1--
%oldchk=x8_08_gs
%chk=x8_08_ex
# TD cam-b3lyp tzvp int=(ultrafine,acc2e=12) SCRF(Solvent=Cyclohexane) Geom=Check Guess=Read

all trans Ph-CH-CH-CH-CH-CH-CH-CH-CH-Ph CAM-B3LYP excited states

0 1

