%Chk=x8_05_LE
# OPT TD(root=1) APFd/6-311+g(2d,p) geom=connectivity SCRF(Solvent=acetonitrile) Int=(Ultrafine,Acc2E=12)

p-(dimethylamino)-benzonitrile geometry optimization of LE (local excitation) [acetonitrile]

0 1
 N                  0.00000000   -0.00000000   -2.27658490
 C                  0.00000000   -0.00000000   -0.88452590
 C                  0.00000000   -1.23540008   -3.01962690
 C                 -0.00000000    1.23540008   -3.01962690
 C                  0.00000000   -1.23177809   -0.20747990
 C                 -0.00000000    1.23177809   -0.20747990
 H                  0.00000000   -1.01918007   -4.08438290
 H                  0.86745697   -1.84188408   -2.76692287
 H                 -0.86745697   -1.84188408   -2.76692287
 H                 -0.00000000    1.01918007   -4.08438290
 H                 -0.86745697    1.84188408   -2.76692287
 H                  0.86745697    1.84188408   -2.76692287
 C                  0.00000000   -1.23133110    1.21930110
 C                 -0.00000000    1.23133110    1.21930110
 H                  0.00000000   -2.17313309   -0.73547791
 H                 -0.00000000    2.17313309   -0.73547791
 C                  0.00000000   -0.00000000    1.89104610
 H                  0.00000000   -2.15588510    1.77923809
 H                 -0.00000000    2.15588510    1.77923809
 C                  0.00000000    0.00000000    3.31458910
 N                  0.00000000    0.00000000    4.46999610

 1 2 1.0 3 1.0 4 1.0
 2 5 1.5 6 1.5
 3 7 1.0 8 1.0 9 1.0
 4 10 1.0 11 1.0 12 1.0
 5 13 1.5 15 1.0
 6 14 1.5 16 1.0
 7
 8
 9
 10
 11
 12
 13 17 1.5 18 1.0
 14 17 1.5 19 1.0
 15
 16
 17 20 1.5
 18
 19
 20 21 3.0
 21

