%Chk=x8_06_hh_gs
# opt freq 6-311+g(2d,p) geom=connectivity apfd int=(ultrafine,acc2e=12)

H-Ph4-H

0 1
 C                 -5.80130404    1.14184962   -0.38951197
 C                 -5.07804250    0.00000000    0.00000000
 C                 -5.80130404   -1.14184962    0.38951197
 C                 -7.19640535   -1.14215226    0.38911463
 C                 -7.90096996    0.00000000   -0.00000000
 C                 -7.19640535    1.14215226   -0.38911463
 C                 -3.59279582    0.00000000    0.00000000
 C                 -2.86347559    1.14583027    0.36345978
 C                 -1.47131364    1.14592284    0.36365320
 C                 -0.74182906    0.00000000    0.00000000
 C                 -1.47131364   -1.14592284   -0.36365320
 C                 -2.86347559   -1.14583027   -0.36345978
 C                  0.74182906    0.00000000    0.00000000
 C                  1.47131364   -1.14592284    0.36365320
 C                  2.86347559   -1.14583027    0.36345978
 C                  3.59279582    0.00000000    0.00000000
 C                  2.86347559    1.14583027   -0.36345978
 C                  1.47131364    1.14592284   -0.36365320
 C                  5.07804250    0.00000000    0.00000000
 C                  5.80130404    1.14184962    0.38951197
 C                  7.19640535    1.14215226    0.38911463
 C                  7.90096996    0.00000000   -0.00000000
 C                  7.19640535   -1.14215226   -0.38911463
 C                  5.80130404   -1.14184962   -0.38951197
 H                  8.98948802   -0.00000000    0.00000000
 H                 -8.98948802   -0.00000000    0.00000000
 H                  3.39190982   -2.04144920    0.68355771
 H                  0.94338667   -2.04155845    0.68443099
 H                  0.94338667    2.04155845   -0.68443099
 H                  3.39190982    2.04144920   -0.68355771
 H                  5.26638925    2.03005609    0.71964921
 H                  7.73418726    2.03537520    0.70279388
 H                  7.73418726   -2.03537520   -0.70279388
 H                  5.26638925   -2.03005609   -0.71964921
 H                 -0.94338667    2.04155845    0.68443099
 H                 -3.39190982    2.04144920    0.68355771
 H                 -3.39190982   -2.04144920   -0.68355771
 H                 -0.94338667   -2.04155845   -0.68443099
 H                 -5.26638925   -2.03005609    0.71964921
 H                 -7.73418726   -2.03537520    0.70279388
 H                 -7.73418726    2.03537520   -0.70279388
 H                 -5.26638925    2.03005609   -0.71964921

 1 2 1.5 6 1.5 42 1.0
 2 3 1.5 7 1.0
 3 4 1.5 39 1.0
 4 5 1.5 40 1.0
 5 6 1.5 26 1.0
 6 41 1.0
 7 8 1.5 12 1.5
 8 9 1.5 36 1.0
 9 10 1.5 35 1.0
 10 11 1.5 13 1.0
 11 12 1.5 38 1.0
 12 37 1.0
 13 14 1.5 18 1.5
 14 15 1.5 28 1.0
 15 16 1.5 27 1.0
 16 17 1.5 19 1.0
 17 18 1.5 30 1.0
 18 29 1.0
 19 20 1.5 24 1.5
 20 21 1.5 31 1.0
 21 22 1.5 32 1.0
 22 23 1.5 25 1.0
 23 24 1.5 33 1.0
 24 34 1.0
 25
 26
 27
 28
 29
 30
 31
 32
 33
 34
 35
 36
 37
 38
 39
 40
 41
 42

--Link1--
%Chk=x8_06_hh_gs
# TD(NStates=6) APFD/6-311+G(2d,p) Geom=Allcheck Guess=Read Int=(ultrafine,acc2e=12)



