%Chk=x8_13_gs
# cas(4,4)/6-31G(d) opt freq

Cyclopentadiene GS

0 1
C 0.0000000	0.0000000	1.3101030
H 0.8723350	0.0000000	1.9660410
H -0.8723350	0.0000000	1.9660410
C 0.0000000	1.1743730	0.3336500
H 0.0000000	2.2022780	0.6362470
C 0.0000000	0.7007700	-1.0938610
H 0.0000000	1.3317130	-1.9523310
C 0.0000000	-1.1743730	0.3336500
H 0.0000000	-2.2022780	0.6362470
C 0.0000000	-0.7007700	-1.0938610
H 0.0000000	-1.3317130	-1.9523310

