%oldchk=x8_12_irc2.chk
%chk=x8_12_prmin.chk
# casscf(6,6)/6-31g(d) opt=calcfc freq geom=connectivity guess=read

Minimization of benzvalene from final IRC point

0 1
 C                  1.00275912   -0.30387853   -0.67222317
 C                  0.68553082    0.79710021    0.29840915
 C                 -0.77269752    1.17061881    0.17079037
 C                 -1.40052223    0.04759862   -0.20271798
 C                 -0.32147699   -1.00383849   -0.30120656
 C                  0.77217111   -0.69411336    0.68709803
 H                  1.77047055   -0.49580083   -1.40320107
 H                  1.46282779    1.50380547    0.58106560
 H                 -1.19636026    2.13365229    0.41143481
 H                 -2.44775840   -0.11441906   -0.37629813
 H                 -0.50139188   -2.01699475   -0.61331657
 H                  1.32264322   -1.26172874    1.41153201

 1 2 1.0 5 1.0 6 1.5 7 1.0
 2 3 1.0 6 1.0 8 1.0
 3 4 2.0 9 1.0
 4 5 1.0 10 1.0
 5 6 1.0 11 1.0
 6 12 1.0
 7
 8
 9
 10
 11
 12

