%chk=x8_10_syn_dmso_1
# opt freq 6-311+g(2d,p) scrf=(solvent=DMSO) geom=connectivity apfd int=(ultrafine,acc2e=12)

Coumarin syn GS opt freq

0 1
 C                 -3.99803700    1.38995100   -0.23174800
 C                 -1.89119700    0.14568300   -0.05270500
 C                 -1.16460500    1.36944900   -0.05787700
 C                 -1.89411100    2.68470500   -0.11529800
 C                 -3.30095300    2.55373000    0.44474200
 C                 -1.19337500   -1.07937600   -0.03598100
 C                  0.20618000    1.34397600   -0.02955600
 C                  0.93086900    0.14364900   -0.01787700
 C                  0.18997000   -1.04891100   -0.02719700
 C                  2.17936400   -2.40700500   -0.01035000
 C                  2.95659800   -1.18893500    0.00415600
 C                  2.35175700    0.01940700   -0.00033700
 H                 -4.12961000    1.59983400   -1.30500300
 H                 -3.87499900    3.47000800    0.28485200
 H                  0.73731200    2.28840600   -0.02640400
 H                  4.03073500   -1.30352200    0.01827200
 C                 -3.99804300   -1.06741600   -0.28116300
 H                 -4.05891300   -1.27489500   -1.36103200
 H                 -5.01954700   -0.90906600    0.07355800
 C                 -3.35208300   -2.23266700    0.44168900
 H                 -3.92577000   -3.14546100    0.26242400
 H                 -3.37510100   -2.03779900    1.51904800
 C                 -1.91606000   -2.39842400   -0.02872900
 H                 -1.37972100   -3.10854500    0.60478800
 H                 -1.89866300   -2.82927800   -1.03772800
 N                 -3.26005100    0.15682500   -0.04271700
 O                  0.80906000   -2.26332100   -0.02839100
 O                  2.62850000   -3.52637900   -0.00900600
 C                  3.20434900    1.26525500    0.01378500
 F                  2.94290200    2.02629900    1.09276000
 F                  2.97495800    2.02854300   -1.07100100
 F                  4.51387200    0.99287700    0.03286000
 H                 -3.26291300    2.37251700    1.52419800
 H                 -4.99604600    1.24019000    0.18887800
 H                 -1.95131300    3.02360100   -1.15786000
 H                 -1.32492200    3.44593400    0.42531400

 1 5 1.0 13 1.0 26 1.0 34 1.0
 2 3 1.5 6 1.5 26 1.5
 3 4 1.0 7 2.0
 4 5 1.0 35 1.0 36 1.0
 5 14 1.0 33 1.0
 6 9 2.0 23 1.0
 7 8 1.5 15 1.0
 8 9 1.5 12 1.5
 9 27 1.0
 10 11 1.5 27 1.0 28 2.0
 11 12 2.0 16 1.0
 12 29 1.0
 13
 14
 15
 16
 17 18 1.0 19 1.0 20 1.0 26 1.0
 18
 19
 20 21 1.0 22 1.0 23 1.0
 21
 22
 23 24 1.0 25 1.0
 24
 25
 26
 27
 28
 29 30 1.0 31 1.0 32 1.0
 30
 31
 32
 33
 34
 35
 36

--link1--
%oldchk=x8_10_syn_dmso_1
%chk=x8_10_syn_dmso_3
# td(nstates=6) apfd 6-311+g(2d,p) int=(ultrafine,acc2e=12) scrf(solvent=DMSO) 
  geom=allcheck guess=read 

