%Chk=x8_10_anti_dmso_1
# opt freq 6-311+g(2d,p) scrf=(solvent=DMSO) geom=connectivity apfd
  int=(ultrafine,acc2e=12)

Coumarin anti GS opt freq

0 1
 C                  4.02727400   -1.38700800    0.09075400
 C                  1.89144200   -0.14342800   -0.02169200
 C                  1.16436700   -1.36387200   -0.11360600
 C                  1.92248700   -2.65487300   -0.21330500
 C                  3.20484300   -2.55413800    0.59966600
 C                  1.19378500    1.07976500    0.05029000
 C                 -0.20510400   -1.34111600   -0.09585700
 C                 -0.92996000   -0.14149500   -0.01759200
 C                 -0.18855600    1.05097100    0.04926200
 C                 -2.18088800    2.40360500    0.14484400
 C                 -2.95651400    1.18753700    0.07895400
 C                 -2.34946100   -0.01833100    0.00199500
 H                  4.45669600   -1.62571800   -0.89296100
 H                  3.79793000   -3.46950500    0.52990300
 H                 -0.73598300   -2.28402400   -0.14997800
 H                 -4.03081400    1.29971100    0.09376400
 C                  4.04525100    1.05493700   -0.01772800
 H                  4.94831700    0.85616100   -0.60472200
 H                  4.37468300    1.28844000    1.00546800
 C                  3.28170400    2.22423100   -0.60435800
 H                  3.88329400    3.13201400   -0.51357800
 H                  3.11132700    2.05033800   -1.67231100
 C                  1.94561400    2.37771100    0.10687600
 H                  2.11051200    2.67293800    1.15122500
 H                  1.35038300    3.17363300   -0.34379800
 N                  3.25336800   -0.16138700   -0.00700300
 O                 -0.80971700    2.26147500    0.13063200
 O                 -2.62931400    3.52162700    0.21210600
 C                 -3.20163200   -1.26265200   -0.06645600
 F                 -2.94696700   -2.08952100    0.96503100
 F                 -2.96545600   -1.95781900   -1.19488100
 F                 -4.51156700   -0.99255400   -0.03865200
 H                  2.95905400   -2.40128500    1.65606300
 H                  4.86900300   -1.19433300    0.76521300
 H                  2.17496000   -2.86206900   -1.26183700
 H                  1.29731200   -3.48342600    0.12889100

 1 5 1.0 13 1.0 26 1.0 34 1.0
 2 3 1.5 6 1.5 26 1.5
 3 4 1.0 7 2.0
 4 5 1.0 35 1.0 36 1.0
 5 14 1.0 33 1.0
 6 9 2.0 23 1.0
 7 8 1.5 15 1.0
 8 9 1.5 12 1.5
 9 27 1.0
 10 11 1.5 27 1.0 28 2.0
 11 12 2.0 16 1.0
 12 29 1.0
 13
 14
 15
 16
 17 18 1.0 19 1.0 20 1.0 26 1.0
 18
 19
 20 21 1.0 22 1.0 23 1.0
 21
 22
 23 24 1.0 25 1.0
 24
 25
 26
 27
 28
 29 30 1.0 31 1.0 32 1.0
 30
 31
 32
 33
 34
 35
 36

--link1--
%oldchk=x8_10_anti_dmso_1
%chk=x8_10_anti_dmso_3
# td(nstates=6) apfd 6-311+g(2d,p) int=(ultrafine,acc2e=12) scrf(solvent=DMSO) 
  geom=allcheck guess=read 

