%oldchk=x8_12_ci
%chk=x8_12_pr
# opt freq casscf(6,6)/6-31g(d) guess=read geom=connectivity

Benzene-Benzvalene photoisomerization.
Move downhill from S1/S0 conical intersection: 
C2-C6 distance shortened to 1.8 Angstrom

0 1
 C                  1.45219872    0.00009140   -0.56117902
 C                  0.71548040    0.89998662    0.23824184
 C                 -0.72269478    1.16284895    0.03075032
 C                 -1.46803158   -0.00003311   -0.16280897
 C                 -0.72261241   -1.16288574    0.03080363
 C                  0.71557135   -0.90001337    0.23812476
 H                  2.52754752    0.00016579   -0.54231479
 H                  1.24141076    1.60497474    0.92746198
 H                 -1.15524582    2.14381984    0.09214148
 H                 -2.51965834   -0.00005469   -0.38040360
 H                 -1.15513093   -2.14386590    0.09226392
 H                  1.24160668   -1.60500826    0.92725566

 1 2 1.0 6 1.0 7 1.0
 2 3 1.0 8 1.0 6 0.5
 3 4 1.5 9 1.0
 4 5 1.5 10 1.0
 5 6 1.0 11 1.0
 6 12 1.0
 7
 8
 9
 10
 11
 12

